26743177
  -OEChem-12032416183D

 62 65  0     1  0  0  0  0  0999 V2000
    4.5740    1.0724   -1.8624 O   0  0  0  0  0  0  0  0  0  0  0  0
   -3.0713   -0.7742   -1.8978 O   0  0  0  0  0  0  0  0  0  0  0  0
   -5.4371   -0.0198   -0.2014 O   0  0  0  0  0  0  0  0  0  0  0  0
    0.6492    2.6978    1.3233 N   0  0  0  0  0  0  0  0  0  0  0  0
    5.5131   -0.4579   -0.3887 N   0  0  0  0  0  0  0  0  0  0  0  0
    7.8521   -1.4262    0.9527 N   0  0  0  0  0  0  0  0  0  0  0  0
   -1.7101   -0.5705   -2.0887 N   0  0  0  0  0  0  0  0  0  0  0  0
    2.1616    1.2471   -0.7539 C   0  0  1  0  0  0  0  0  0  0  0  0
    0.6879    0.9223   -0.4122 C   0  0  2  0  0  0  0  0  0  0  0  0
    2.4596    2.7028   -0.3573 C   0  0  0  0  0  0  0  0  0  0  0  0
    0.3462    1.2945    1.0404 C   0  0  0  0  0  0  0  0  0  0  0  0
    3.1755    0.2896   -0.1164 C   0  0  0  0  0  0  0  0  0  0  0  0
    2.0571    3.0086    1.0848 C   0  0  0  0  0  0  0  0  0  0  0  0
    0.3137   -0.5330   -0.6961 C   0  0  0  0  0  0  0  0  0  0  0  0
    4.4786    0.3412   -0.8734 C   0  0  0  0  0  0  0  0  0  0  0  0
   -1.1685   -0.6922   -0.8734 C   0  0  0  0  0  0  0  0  0  0  0  0
    6.8096   -0.4601   -1.0645 C   0  0  0  0  0  0  0  0  0  0  0  0
    5.3926   -1.4334    0.6988 C   0  0  0  0  0  0  0  0  0  0  0  0
    7.9584   -0.3666   -0.0609 C   0  0  0  0  0  0  0  0  0  0  0  0
    6.5714   -1.3267    1.6680 C   0  0  0  0  0  0  0  0  0  0  0  0
   -2.1298   -0.9698    0.1139 C   0  0  0  0  0  0  0  0  0  0  0  0
    8.9714   -1.3534    1.8909 C   0  0  0  0  0  0  0  0  0  0  0  0
   -3.3089   -1.0109   -0.5823 C   0  0  0  0  0  0  0  0  0  0  0  0
   -4.7062   -1.2493   -0.2012 C   0  0  0  0  0  0  0  0  0  0  0  0
   -6.7418   -0.0870    0.2000 C   0  0  0  0  0  0  0  0  0  0  0  0
   -7.2920   -1.3105    0.5815 C   0  0  0  0  0  0  0  0  0  0  0  0
   -7.5230    1.0682    0.2280 C   0  0  0  0  0  0  0  0  0  0  0  0
   -8.6237   -1.3790    0.9912 C   0  0  0  0  0  0  0  0  0  0  0  0
   -8.8545    0.9998    0.6378 C   0  0  0  0  0  0  0  0  0  0  0  0
   -9.4049   -0.2239    1.0193 C   0  0  0  0  0  0  0  0  0  0  0  0
    2.2373    1.1757   -1.8478 H   0  0  0  0  0  0  0  0  0  0  0  0
    0.0750    1.5665   -1.0624 H   0  0  0  0  0  0  0  0  0  0  0  0
    1.9017    3.3702   -1.0282 H   0  0  0  0  0  0  0  0  0  0  0  0
    3.5176    2.9503   -0.4958 H   0  0  0  0  0  0  0  0  0  0  0  0
   -0.7217    1.1536    1.2304 H   0  0  0  0  0  0  0  0  0  0  0  0
    0.8826    0.6477    1.7458 H   0  0  0  0  0  0  0  0  0  0  0  0
    2.8245   -0.7444   -0.1802 H   0  0  0  0  0  0  0  0  0  0  0  0
    3.3501    0.5303    0.9356 H   0  0  0  0  0  0  0  0  0  0  0  0
    2.6917    2.4707    1.7975 H   0  0  0  0  0  0  0  0  0  0  0  0
    2.2133    4.0765    1.2745 H   0  0  0  0  0  0  0  0  0  0  0  0
    0.6478   -1.1953    0.1120 H   0  0  0  0  0  0  0  0  0  0  0  0
    0.8087   -0.8780   -1.6134 H   0  0  0  0  0  0  0  0  0  0  0  0
    0.4184    2.9037    2.2948 H   0  0  0  0  0  0  0  0  0  0  0  0
    6.8748    0.3674   -1.7784 H   0  0  0  0  0  0  0  0  0  0  0  0
    6.8740   -1.3928   -1.6384 H   0  0  0  0  0  0  0  0  0  0  0  0
    5.3694   -2.4269    0.2339 H   0  0  0  0  0  0  0  0  0  0  0  0
    4.4600   -1.3182    1.2537 H   0  0  0  0  0  0  0  0  0  0  0  0
    8.9042   -0.4634   -0.6073 H   0  0  0  0  0  0  0  0  0  0  0  0
    7.9507    0.6237    0.4139 H   0  0  0  0  0  0  0  0  0  0  0  0
    6.5086   -0.3768    2.2156 H   0  0  0  0  0  0  0  0  0  0  0  0
    6.4891   -2.1369    2.4024 H   0  0  0  0  0  0  0  0  0  0  0  0
   -1.9892   -1.1210    1.1740 H   0  0  0  0  0  0  0  0  0  0  0  0
    8.9149   -2.1690    2.6204 H   0  0  0  0  0  0  0  0  0  0  0  0
    8.9944   -0.4032    2.4368 H   0  0  0  0  0  0  0  0  0  0  0  0
    9.9240   -1.4707    1.3624 H   0  0  0  0  0  0  0  0  0  0  0  0
   -5.1467   -1.9522   -0.9197 H   0  0  0  0  0  0  0  0  0  0  0  0
   -4.7031   -1.6897    0.8042 H   0  0  0  0  0  0  0  0  0  0  0  0
   -6.7506   -2.2500    0.5798 H   0  0  0  0  0  0  0  0  0  0  0  0
   -7.0996    2.0240   -0.0681 H   0  0  0  0  0  0  0  0  0  0  0  0
   -9.0539   -2.3315    1.2872 H   0  0  0  0  0  0  0  0  0  0  0  0
   -9.4629    1.8992    0.6596 H   0  0  0  0  0  0  0  0  0  0  0  0
  -10.4419   -0.2771    1.3379 H   0  0  0  0  0  0  0  0  0  0  0  0
  1 15  2  0  0  0  0
  2  7  1  0  0  0  0
  2 23  1  0  0  0  0
  3 24  1  0  0  0  0
  3 25  1  0  0  0  0
  4 11  1  0  0  0  0
  4 13  1  0  0  0  0
  4 43  1  0  0  0  0
  5 15  1  0  0  0  0
  5 17  1  0  0  0  0
  5 18  1  0  0  0  0
  6 19  1  0  0  0  0
  6 20  1  0  0  0  0
  6 22  1  0  0  0  0
  7 16  2  0  0  0  0
  8  9  1  0  0  0  0
  8 10  1  0  0  0  0
  8 12  1  0  0  0  0
  8 31  1  0  0  0  0
  9 11  1  0  0  0  0
  9 14  1  0  0  0  0
  9 32  1  0  0  0  0
 10 13  1  0  0  0  0
 10 33  1  0  0  0  0
 10 34  1  0  0  0  0
 11 35  1  0  0  0  0
 11 36  1  0  0  0  0
 12 15  1  0  0  0  0
 12 37  1  0  0  0  0
 12 38  1  0  0  0  0
 13 39  1  0  0  0  0
 13 40  1  0  0  0  0
 14 16  1  0  0  0  0
 14 41  1  0  0  0  0
 14 42  1  0  0  0  0
 16 21  1  0  0  0  0
 17 19  1  0  0  0  0
 17 44  1  0  0  0  0
 17 45  1  0  0  0  0
 18 20  1  0  0  0  0
 18 46  1  0  0  0  0
 18 47  1  0  0  0  0
 19 48  1  0  0  0  0
 19 49  1  0  0  0  0
 20 50  1  0  0  0  0
 20 51  1  0  0  0  0
 21 23  2  0  0  0  0
 21 52  1  0  0  0  0
 22 53  1  0  0  0  0
 22 54  1  0  0  0  0
 22 55  1  0  0  0  0
 23 24  1  0  0  0  0
 24 56  1  0  0  0  0
 24 57  1  0  0  0  0
 25 26  2  0  0  0  0
 25 27  1  0  0  0  0
 26 28  1  0  0  0  0
 26 58  1  0  0  0  0
 27 29  2  0  0  0  0
 27 59  1  0  0  0  0
 28 30  2  0  0  0  0
 28 60  1  0  0  0  0
 29 30  1  0  0  0  0
 29 61  1  0  0  0  0
 30 62  1  0  0  0  0
M  END
> <PUBCHEM_COMPOUND_CID>
26743177

> <PUBCHEM_CONFORMER_RMSD>
1.2

> <PUBCHEM_CONFORMER_DIVERSEORDER>
1
73
70
7
127
130
51
103
90
78
111
157
132
76
36
14
52
61
18
74
101
20
128
44
75
84
120
25
109
159
116
98
149
108
24
31
94
133
34
87
95
82
118
11
148
89
48
135
86
125
147
121
67
151
114
105
50
55
26
43
102
56
104
124
30
59
63
85
54
72
6
146
27
134
156
117
64
83
91
112
62
126
158
145
28
60
29
150
99
22
92
47
32
8
138
42
119
15
21
57
142
79
96
68
143
4
35
122
41
65
3
71
131
38
45
53
23
115
33
139
144
9
66
106
136
58
46
13
19
69
140
107
40
39
110
37
153
49
81
154
93
100
88
155
10
97
17
113
80
152
129
123
16
2
12
5
141
137
77

> <PUBCHEM_MMFF94_PARTIAL_CHARGES>
34
1 -0.57
11 0.27
12 0.06
13 0.27
14 0.18
15 0.57
16 0.11
17 0.3
18 0.3
19 0.27
2 -0.02
20 0.27
21 -0.15
22 0.27
23 -0.04
24 0.46
25 0.08
26 -0.15
27 -0.15
28 -0.15
29 -0.15
3 -0.36
30 -0.15
4 -0.9
43 0.36
5 -0.66
52 0.15
58 0.15
59 0.15
6 -0.81
60 0.15
61 0.15
62 0.15
7 -0.41

> <PUBCHEM_EFFECTIVE_ROTOR_COUNT>
10.4

> <PUBCHEM_PHARMACOPHORE_FEATURES>
10
1 1 acceptor
1 3 acceptor
1 4 cation
1 4 donor
1 6 cation
1 7 acceptor
5 2 7 16 21 23 rings
6 25 26 27 28 29 30 rings
6 4 8 9 10 11 13 rings
6 5 6 17 18 19 20 rings

> <PUBCHEM_HEAVY_ATOM_COUNT>
30

> <PUBCHEM_ATOM_DEF_STEREO_COUNT>
2

> <PUBCHEM_ATOM_UDEF_STEREO_COUNT>
0

> <PUBCHEM_BOND_DEF_STEREO_COUNT>
0

> <PUBCHEM_BOND_UDEF_STEREO_COUNT>
0

> <PUBCHEM_ISOTOPIC_ATOM_COUNT>
0

> <PUBCHEM_COMPONENT_COUNT>
1

> <PUBCHEM_CACTVS_TAUTO_COUNT>
1

> <PUBCHEM_CONFORMER_ID>
0198118900000001

> <PUBCHEM_MMFF94_ENERGY>
61.2959

> <PUBCHEM_FEATURE_SELFOVERLAP>
50.747

> <PUBCHEM_SHAPE_FINGERPRINT>
10162869 55 17918267672139511191
10299344 5 17821731641251141671
10674148 151 17458345264358176288
11456790 92 18410295813400256475
11476731 38 18113903763543456222
12013929 2 17313099740755461679
12144603 126 18410296943520175524
12664476 115 18412545397929195013
12758862 56 18342739641067012915
12838862 33 17203322287233731613
13008946 113 17843393244675075656
13673619 4 17458058261689711308
14344974 52 14692565525878279387
14444916 359 17022621970715030027
150020 25 12107792908306640071
15183329 4 17417545682792944549
15301273 46 16805320003534427967
15419008 145 18341332198239852225
1577012 14 17845936359324268365
15849732 13 17418375787663613647
17134984 74 16153699896389538978
1754911 235 9943805594963584747
19301679 30 18268994181476194574
19315958 150 16415761929806583134
19841028 212 18187644640442177938
20105231 36 14779270813198934745
2026 5 16805871885215327034
21095086 128 17022904562488225243
21150785 3 10303814268326104951
21267235 1 15430036560975410743
21344244 181 15719392819975266072
21344244 246 13551737489129935976
21360443 126 9007053574009711928
21792934 111 17918270948645877568
21792938 324 17988627606359056920
246663 6 16226048885897668879
24893992 56 18271528685070134499
249057 3 18130788984136664695
2838139 119 17988924492711594157
3178227 256 18409449193489011590
395649 100 12895059727265661117
4325135 7 9439403519235133899
439807 62 17240202132249712562
44880568 143 10807399394241173931
5381727 24 18272370894008417703
58260988 647 17168141183789163346
6058803 2 17412448509404347117
6081469 158 16558758884523497598

> <PUBCHEM_SHAPE_MULTIPOLES>
579.85
31.07
2.21
1.55
25.31
1.7
0.12
-13.65
-12.82
-1.72
-0.85
-1.61
-0.11
-1.69

> <PUBCHEM_SHAPE_SELFOVERLAP>
1215.985

> <PUBCHEM_SHAPE_VOLUME>
325.7

> <PUBCHEM_COORDINATE_TYPE>
2
5
10

$$$$
