45360422
  -OEChem-12032416183D

 54 57  0     1  0  0  0  0  0999 V2000
    5.5959    1.1232   -0.4462 O   0  0  0  0  0  0  0  0  0  0  0  0
    5.8888   -1.6016    0.0157 O   0  0  0  0  0  0  0  0  0  0  0  0
   -4.5884   -0.5136   -1.1846 N   0  0  2  0  0  0  0  0  0  0  0  0
   -0.6768    2.1906    0.3838 N   0  0  0  0  0  0  0  0  0  0  0  0
   -3.7164   -3.7811    0.5004 N   0  0  0  0  0  0  0  0  0  0  0  0
    0.6501    2.0047    0.4883 N   0  0  0  0  0  0  0  0  0  0  0  0
   -3.7537    0.6666    0.9819 C   0  0  2  0  0  0  0  0  0  0  0  0
   -2.8661    1.0635   -0.2301 C   0  0  2  0  0  0  0  0  0  0  0  0
   -4.4372   -1.5084   -0.0900 C   0  0  2  0  0  0  0  0  0  0  0  0
   -3.7498   -0.8690    1.1358 C   0  0  0  0  0  0  0  0  0  0  0  0
   -5.1981    1.0836    0.6314 C   0  0  0  0  0  0  0  0  0  0  0  0
   -3.2954    0.1723   -1.4305 C   0  0  0  0  0  0  0  0  0  0  0  0
   -5.5742    0.5019   -0.7426 C   0  0  0  0  0  0  0  0  0  0  0  0
   -1.3564    1.0860   -0.0385 C   0  0  0  0  0  0  0  0  0  0  0  0
   -3.7164   -2.7769   -0.5508 C   0  0  0  0  0  0  0  0  0  0  0  0
   -0.4081    0.1097   -0.2236 C   0  0  0  0  0  0  0  0  0  0  0  0
    0.8082    0.7317    0.1160 C   0  0  0  0  0  0  0  0  0  0  0  0
   -1.2362    3.4818    0.7104 C   0  0  0  0  0  0  0  0  0  0  0  0
    2.1177    0.1340    0.0900 C   0  0  0  0  0  0  0  0  0  0  0  0
    3.2392    0.9224   -0.1677 C   0  0  0  0  0  0  0  0  0  0  0  0
    2.2650   -1.2336    0.3214 C   0  0  0  0  0  0  0  0  0  0  0  0
    4.5080    0.3432   -0.1936 C   0  0  0  0  0  0  0  0  0  0  0  0
    3.5336   -1.8128    0.2953 C   0  0  0  0  0  0  0  0  0  0  0  0
    4.6552   -1.0244    0.0378 C   0  0  0  0  0  0  0  0  0  0  0  0
    5.3593    2.5115   -0.6721 C   0  0  0  0  0  0  0  0  0  0  0  0
    5.9522   -3.0051    0.2621 C   0  0  0  0  0  0  0  0  0  0  0  0
   -3.4174    1.1510    1.9044 H   0  0  0  0  0  0  0  0  0  0  0  0
   -3.1500    2.0908   -0.5044 H   0  0  0  0  0  0  0  0  0  0  0  0
   -5.4488   -1.8224    0.2090 H   0  0  0  0  0  0  0  0  0  0  0  0
   -4.2926   -1.1485    2.0472 H   0  0  0  0  0  0  0  0  0  0  0  0
   -2.7169   -1.2148    1.2569 H   0  0  0  0  0  0  0  0  0  0  0  0
   -5.8890    0.7169    1.4004 H   0  0  0  0  0  0  0  0  0  0  0  0
   -5.2864    2.1761    0.6101 H   0  0  0  0  0  0  0  0  0  0  0  0
   -2.5377   -0.5632   -1.7158 H   0  0  0  0  0  0  0  0  0  0  0  0
   -3.3998    0.8081   -2.3206 H   0  0  0  0  0  0  0  0  0  0  0  0
   -6.5760    0.0571   -0.6972 H   0  0  0  0  0  0  0  0  0  0  0  0
   -5.6428    1.3034   -1.4892 H   0  0  0  0  0  0  0  0  0  0  0  0
   -4.2238   -3.1916   -1.4295 H   0  0  0  0  0  0  0  0  0  0  0  0
   -2.6802   -2.5740   -0.8400 H   0  0  0  0  0  0  0  0  0  0  0  0
   -0.5774   -0.9051   -0.5540 H   0  0  0  0  0  0  0  0  0  0  0  0
   -3.2439   -4.6204    0.1666 H   0  0  0  0  0  0  0  0  0  0  0  0
   -3.1775   -3.4553    1.3010 H   0  0  0  0  0  0  0  0  0  0  0  0
   -1.5706    3.9551   -0.2159 H   0  0  0  0  0  0  0  0  0  0  0  0
   -2.0708    3.3416    1.4013 H   0  0  0  0  0  0  0  0  0  0  0  0
   -0.4704    4.0994    1.1875 H   0  0  0  0  0  0  0  0  0  0  0  0
    3.0805    1.9791   -0.3545 H   0  0  0  0  0  0  0  0  0  0  0  0
    1.4109   -1.8716    0.5350 H   0  0  0  0  0  0  0  0  0  0  0  0
    3.5724   -2.8798    0.4861 H   0  0  0  0  0  0  0  0  0  0  0  0
    4.7574    2.6778   -1.5721 H   0  0  0  0  0  0  0  0  0  0  0  0
    4.9350    2.9990    0.2123 H   0  0  0  0  0  0  0  0  0  0  0  0
    6.3335    2.9780   -0.8531 H   0  0  0  0  0  0  0  0  0  0  0  0
    5.6082   -3.2535    1.2719 H   0  0  0  0  0  0  0  0  0  0  0  0
    5.4244   -3.5747   -0.5104 H   0  0  0  0  0  0  0  0  0  0  0  0
    7.0067   -3.2948    0.2055 H   0  0  0  0  0  0  0  0  0  0  0  0
  1 22  1  0  0  0  0
  1 25  1  0  0  0  0
  2 24  1  0  0  0  0
  2 26  1  0  0  0  0
  3  9  1  0  0  0  0
  3 12  1  0  0  0  0
  3 13  1  0  0  0  0
  4  6  1  0  0  0  0
  4 14  1  0  0  0  0
  4 18  1  0  0  0  0
  5 15  1  0  0  0  0
  5 41  1  0  0  0  0
  5 42  1  0  0  0  0
  6 17  2  0  0  0  0
  7  8  1  0  0  0  0
  7 10  1  0  0  0  0
  7 11  1  0  0  0  0
  7 27  1  0  0  0  0
  8 12  1  0  0  0  0
  8 14  1  0  0  0  0
  8 28  1  0  0  0  0
  9 10  1  0  0  0  0
  9 15  1  0  0  0  0
  9 29  1  0  0  0  0
 10 30  1  0  0  0  0
 10 31  1  0  0  0  0
 11 13  1  0  0  0  0
 11 32  1  0  0  0  0
 11 33  1  0  0  0  0
 12 34  1  0  0  0  0
 12 35  1  0  0  0  0
 13 36  1  0  0  0  0
 13 37  1  0  0  0  0
 14 16  2  0  0  0  0
 15 38  1  0  0  0  0
 15 39  1  0  0  0  0
 16 17  1  0  0  0  0
 16 40  1  0  0  0  0
 17 19  1  0  0  0  0
 18 43  1  0  0  0  0
 18 44  1  0  0  0  0
 18 45  1  0  0  0  0
 19 20  2  0  0  0  0
 19 21  1  0  0  0  0
 20 22  1  0  0  0  0
 20 46  1  0  0  0  0
 21 23  2  0  0  0  0
 21 47  1  0  0  0  0
 22 24  2  0  0  0  0
 23 24  1  0  0  0  0
 23 48  1  0  0  0  0
 25 49  1  0  0  0  0
 25 50  1  0  0  0  0
 25 51  1  0  0  0  0
 26 52  1  0  0  0  0
 26 53  1  0  0  0  0
 26 54  1  0  0  0  0
M  END
> <PUBCHEM_COMPOUND_CID>
45360422

> <PUBCHEM_CONFORMER_RMSD>
0.8

> <PUBCHEM_CONFORMER_DIVERSEORDER>
3
11
14
5
20
16
7
18
8
15
13
17
10
6
1
19
4
12
9
2

> <PUBCHEM_MMFF94_PARTIAL_CHARGES>
29
1 -0.36
12 0.27
13 0.27
14 -0.33
15 0.27
16 -0.15
17 0.23
18 0.26
19 0.05
2 -0.36
20 -0.15
21 -0.15
22 0.08
23 -0.15
24 0.08
25 0.28
26 0.28
3 -0.81
4 0.31
40 0.15
41 0.36
42 0.36
46 0.15
47 0.15
48 0.15
5 -0.99
6 -0.71
8 0.18
9 0.27

> <PUBCHEM_EFFECTIVE_ROTOR_COUNT>
6.2

> <PUBCHEM_PHARMACOPHORE_FEATURES>
9
1 1 acceptor
1 2 acceptor
1 3 cation
1 5 cation
1 5 donor
1 6 acceptor
5 4 6 14 16 17 rings
6 19 20 21 22 23 24 rings
8 3 7 8 9 10 11 12 13 rings

> <PUBCHEM_HEAVY_ATOM_COUNT>
26

> <PUBCHEM_ATOM_DEF_STEREO_COUNT>
3

> <PUBCHEM_ATOM_UDEF_STEREO_COUNT>
0

> <PUBCHEM_BOND_DEF_STEREO_COUNT>
0

> <PUBCHEM_BOND_UDEF_STEREO_COUNT>
0

> <PUBCHEM_ISOTOPIC_ATOM_COUNT>
0

> <PUBCHEM_COMPONENT_COUNT>
1

> <PUBCHEM_CACTVS_TAUTO_COUNT>
1

> <PUBCHEM_CONFORMER_ID>
02B4252600000003

> <PUBCHEM_MMFF94_ENERGY>
82.68

> <PUBCHEM_FEATURE_SELFOVERLAP>
45.675

> <PUBCHEM_SHAPE_FINGERPRINT>
10595046 47 18411140259842622028
10622 236 17629455735382409495
10835480 77 18261385659184569445
10906281 52 18058743416281627885
11045515 52 18187081736963250260
11315181 36 17418370294738019521
12107183 9 17619070525592249288
12236239 1 18272089379036895837
12516196 113 18272929444712404977
12553582 1 18339630166855229681
12760667 363 18270676468014013263
12788726 201 17917155996241621961
13167823 11 18409729534810295998
13533116 47 18409449159862275256
13544653 18 18409451383827393413
13631057 29 18194964273662175271
14251764 18 18202285801933617297
14787075 74 18262238940584607240
15188451 53 15984237717844327397
15196674 1 18410012156316700706
15250474 111 18338793421116210946
15788980 27 17167582682841546653
15799311 1 18340504282768119998
16110190 28 18413113866023814419
17349148 13 17968099694561422304
17492 89 18197499524485485750
17844677 252 18336268942492579932
17857418 61 18341610378564663578
18927931 339 18341338786028080879
19377110 9 18272083890786123312
200 152 18408886217697175665
20028762 73 18341608162784376502
20775530 9 17904474457293259459
21033650 10 15286201641048562132
21267235 1 18339930295138754622
21403212 168 18128826244934602217
221490 88 18193838378091978385
22393880 68 17677322815003861902
22950370 63 18342176678244493985
23466295 7 18042696181582191707
23522609 53 18057349282023294960
23559900 14 18340196501290866233
3004659 81 18187642475371666002
314194 84 18342738541739708706
3246875 12 18124591149098106016
335352 9 18412823565469591957
34797466 226 16515698748782783660
4073 2 18187650262200134554
4325135 7 18408604773275723356
5104073 3 18131069342057700144
5283173 99 18042115479911627397
5486654 36 18337399335430761747
559249 180 18272083856468140831
7495541 125 17846773006168672112
999808 66 18040729090981749979

> <PUBCHEM_SHAPE_MULTIPOLES>
503.41
15.15
3.47
0.95
10.33
1.13
0.08
5.6
1.41
0.63
-0.5
-0.96
-0.06
-1.02

> <PUBCHEM_SHAPE_SELFOVERLAP>
1083.532

> <PUBCHEM_SHAPE_VOLUME>
276.7

> <PUBCHEM_COORDINATE_TYPE>
2
5
10

$$$$
