7050299
  -OEChem-12032416133D

 58 61  0     1  0  0  0  0  0999 V2000
    2.1062    1.5533    1.0402 O   0  0  0  0  0  0  0  0  0  0  0  0
    3.7278   -2.0396   -1.4136 O   0  0  0  0  0  0  0  0  0  0  0  0
   -3.1386   -1.1806    2.0974 O   0  0  0  0  0  0  0  0  0  0  0  0
   -8.4298    1.5658    0.1676 O   0  0  0  0  0  0  0  0  0  0  0  0
    1.6156   -1.3767   -0.7182 N   0  0  0  0  0  0  0  0  0  0  0  0
   -1.8265   -1.5935    0.2194 N   0  0  0  0  0  0  0  0  0  0  0  0
    3.3412   -0.0502   -0.1880 N   0  0  0  0  0  0  0  0  0  0  0  0
   -6.3276    0.9508   -0.6068 N   0  0  0  0  0  0  0  0  0  0  0  0
   -0.6409   -2.0553    0.9042 C   0  0  2  0  0  0  0  0  0  0  0  0
    0.9983   -0.3233    0.0402 C   0  0  1  0  0  0  0  0  0  0  0  0
    0.2855   -0.8815    1.2679 C   0  0  0  0  0  0  0  0  0  0  0  0
    0.0969   -3.1166    0.0694 C   0  0  0  0  0  0  0  0  0  0  0  0
    0.8140   -2.5119   -1.1391 C   0  0  0  0  0  0  0  0  0  0  0  0
   -4.0441   -0.7394   -0.0653 C   0  0  0  0  0  0  0  0  0  0  0  0
    2.2107    0.5230    0.3860 C   0  0  0  0  0  0  0  0  0  0  0  0
    2.9973   -1.2301   -0.8554 C   0  0  0  0  0  0  0  0  0  0  0  0
   -5.4190   -1.0300    0.5425 C   0  0  0  0  0  0  0  0  0  0  0  0
   -3.8831    0.7545   -0.3591 C   0  0  0  0  0  0  0  0  0  0  0  0
   -2.9758   -1.1951    0.8801 C   0  0  0  0  0  0  0  0  0  0  0  0
   -6.5369   -0.4728   -0.3349 C   0  0  0  0  0  0  0  0  0  0  0  0
   -5.0330    1.2756   -1.2186 C   0  0  0  0  0  0  0  0  0  0  0  0
    4.6687    0.4758   -0.0909 C   0  0  0  0  0  0  0  0  0  0  0  0
   -7.3365    1.8687   -0.3169 C   0  0  0  0  0  0  0  0  0  0  0  0
    5.0534    1.2069    1.0358 C   0  0  0  0  0  0  0  0  0  0  0  0
    5.5863    0.2608   -1.1224 C   0  0  0  0  0  0  0  0  0  0  0  0
   -7.0422    3.3152   -0.6236 C   0  0  0  0  0  0  0  0  0  0  0  0
    6.3472    1.7196    1.1306 C   0  0  0  0  0  0  0  0  0  0  0  0
    6.8802    0.7735   -1.0274 C   0  0  0  0  0  0  0  0  0  0  0  0
    7.2606    1.5028    0.0990 C   0  0  0  0  0  0  0  0  0  0  0  0
    8.6439    2.0501    0.1999 C   0  0  0  0  0  0  0  0  0  0  0  0
   -0.9714   -2.5265    1.8384 H   0  0  0  0  0  0  0  0  0  0  0  0
    0.3273    0.2385   -0.6180 H   0  0  0  0  0  0  0  0  0  0  0  0
    1.0302   -1.2398    1.9918 H   0  0  0  0  0  0  0  0  0  0  0  0
   -0.2717   -0.0815    1.7703 H   0  0  0  0  0  0  0  0  0  0  0  0
   -0.5962   -3.8970   -0.2657 H   0  0  0  0  0  0  0  0  0  0  0  0
    0.8438   -3.6021    0.7110 H   0  0  0  0  0  0  0  0  0  0  0  0
    1.4534   -3.2601   -1.6181 H   0  0  0  0  0  0  0  0  0  0  0  0
    0.0968   -2.1530   -1.8848 H   0  0  0  0  0  0  0  0  0  0  0  0
   -3.9613   -1.3008   -1.0057 H   0  0  0  0  0  0  0  0  0  0  0  0
   -1.7834   -1.4935   -0.7904 H   0  0  0  0  0  0  0  0  0  0  0  0
   -5.5013   -0.5752    1.5387 H   0  0  0  0  0  0  0  0  0  0  0  0
   -5.5555   -2.1098    0.6762 H   0  0  0  0  0  0  0  0  0  0  0  0
   -2.9296    0.9420   -0.8673 H   0  0  0  0  0  0  0  0  0  0  0  0
   -3.8509    1.3171    0.5836 H   0  0  0  0  0  0  0  0  0  0  0  0
   -6.5607   -0.9906   -1.3011 H   0  0  0  0  0  0  0  0  0  0  0  0
   -7.5042   -0.6399    0.1492 H   0  0  0  0  0  0  0  0  0  0  0  0
   -4.9109    2.3488   -1.3743 H   0  0  0  0  0  0  0  0  0  0  0  0
   -5.0149    0.8017   -2.2073 H   0  0  0  0  0  0  0  0  0  0  0  0
    4.3815    1.3684    1.8731 H   0  0  0  0  0  0  0  0  0  0  0  0
    5.3166   -0.2755   -2.0270 H   0  0  0  0  0  0  0  0  0  0  0  0
   -6.8629    3.4461   -1.6940 H   0  0  0  0  0  0  0  0  0  0  0  0
   -6.1800    3.6566   -0.0447 H   0  0  0  0  0  0  0  0  0  0  0  0
   -7.9043    3.9290   -0.3448 H   0  0  0  0  0  0  0  0  0  0  0  0
    6.6347    2.2787    2.0172 H   0  0  0  0  0  0  0  0  0  0  0  0
    7.5815    0.6024   -1.8399 H   0  0  0  0  0  0  0  0  0  0  0  0
    8.6628    2.9707    0.7932 H   0  0  0  0  0  0  0  0  0  0  0  0
    9.3050    1.3160    0.6710 H   0  0  0  0  0  0  0  0  0  0  0  0
    9.0434    2.2988   -0.7892 H   0  0  0  0  0  0  0  0  0  0  0  0
  1 15  2  0  0  0  0
  2 16  2  0  0  0  0
  3 19  2  0  0  0  0
  4 23  2  0  0  0  0
  5 10  1  0  0  0  0
  5 13  1  0  0  0  0
  5 16  1  0  0  0  0
  6  9  1  0  0  0  0
  6 19  1  0  0  0  0
  6 40  1  0  0  0  0
  7 15  1  0  0  0  0
  7 16  1  0  0  0  0
  7 22  1  0  0  0  0
  8 20  1  0  0  0  0
  8 21  1  0  0  0  0
  8 23  1  0  0  0  0
  9 11  1  0  0  0  0
  9 12  1  0  0  0  0
  9 31  1  0  0  0  0
 10 11  1  0  0  0  0
 10 15  1  0  0  0  0
 10 32  1  0  0  0  0
 11 33  1  0  0  0  0
 11 34  1  0  0  0  0
 12 13  1  0  0  0  0
 12 35  1  0  0  0  0
 12 36  1  0  0  0  0
 13 37  1  0  0  0  0
 13 38  1  0  0  0  0
 14 17  1  0  0  0  0
 14 18  1  0  0  0  0
 14 19  1  0  0  0  0
 14 39  1  0  0  0  0
 17 20  1  0  0  0  0
 17 41  1  0  0  0  0
 17 42  1  0  0  0  0
 18 21  1  0  0  0  0
 18 43  1  0  0  0  0
 18 44  1  0  0  0  0
 20 45  1  0  0  0  0
 20 46  1  0  0  0  0
 21 47  1  0  0  0  0
 21 48  1  0  0  0  0
 22 24  2  0  0  0  0
 22 25  1  0  0  0  0
 23 26  1  0  0  0  0
 24 27  1  0  0  0  0
 24 49  1  0  0  0  0
 25 28  2  0  0  0  0
 25 50  1  0  0  0  0
 26 51  1  0  0  0  0
 26 52  1  0  0  0  0
 26 53  1  0  0  0  0
 27 29  2  0  0  0  0
 27 54  1  0  0  0  0
 28 29  1  0  0  0  0
 28 55  1  0  0  0  0
 29 30  1  0  0  0  0
 30 56  1  0  0  0  0
 30 57  1  0  0  0  0
 30 58  1  0  0  0  0
M  END
> <PUBCHEM_COMPOUND_CID>
7050299

> <PUBCHEM_CONFORMER_RMSD>
1

> <PUBCHEM_CONFORMER_DIVERSEORDER>
1
10
4
15
14
6
22
21
12
11
2
28
8
16
23
29
20
3
13
18
7
9
27
25
26
17
24
19
5

> <PUBCHEM_MMFF94_PARTIAL_CHARGES>
31
1 -0.57
10 0.36
13 0.3
14 0.06
15 0.57
16 0.69
19 0.57
2 -0.57
20 0.3
21 0.3
22 0.12
23 0.57
24 -0.15
25 -0.15
26 0.06
27 -0.15
28 -0.15
29 -0.14
3 -0.57
30 0.14
4 -0.57
40 0.37
49 0.15
5 -0.66
50 0.15
54 0.15
55 0.15
6 -0.73
7 -0.24
8 -0.66
9 0.3

> <PUBCHEM_EFFECTIVE_ROTOR_COUNT>
7.2

> <PUBCHEM_PHARMACOPHORE_FEATURES>
9
1 1 acceptor
1 2 acceptor
1 3 acceptor
1 4 acceptor
1 6 donor
5 5 7 10 15 16 rings
6 22 24 25 27 28 29 rings
6 5 9 10 11 12 13 rings
6 8 14 17 18 20 21 rings

> <PUBCHEM_HEAVY_ATOM_COUNT>
30

> <PUBCHEM_ATOM_DEF_STEREO_COUNT>
2

> <PUBCHEM_ATOM_UDEF_STEREO_COUNT>
0

> <PUBCHEM_BOND_DEF_STEREO_COUNT>
0

> <PUBCHEM_BOND_UDEF_STEREO_COUNT>
0

> <PUBCHEM_ISOTOPIC_ATOM_COUNT>
0

> <PUBCHEM_COMPONENT_COUNT>
1

> <PUBCHEM_CACTVS_TAUTO_COUNT>
2

> <PUBCHEM_CONFORMER_ID>
006B943B00000001

> <PUBCHEM_MMFF94_ENERGY>
70.6877

> <PUBCHEM_FEATURE_SELFOVERLAP>
45.785

> <PUBCHEM_SHAPE_FINGERPRINT>
10 15 17749109980974360561
10006869 2 18339917131116811394
10280341 67 18262224539697180501
10835480 77 18413388722492786661
11135926 11 17132126748619201935
11181472 205 18114184143082200556
11409948 41 16271658767934153244
11578821 258 18192714673558386044
12013929 29 17767124203770861873
12166972 35 12895356616373601514
12895837 130 18410574015981100765
12988421 55 17167852059529017491
13402501 40 18408882945259156797
13631057 29 11383843666190059918
13673619 4 10735876175448992155
13690498 29 17416951989922789127
14556957 393 16200163109578481681
14767858 380 16272214097930190538
14931854 50 17703796907200646528
15142383 8 18334575789913556400
15183329 4 16988563477168239009
15238133 3 17749677389256640670
17899979 129 18129667370654454711
19302320 297 18113340821036036917
2026 5 9223237342840113149
21033648 29 18187372025465663191
21150785 3 14692578745265292768
21267235 1 12035713333580853850
21298829 104 18409168792612912053
21307412 95 12895056428809989917
21424621 283 18260830384469094035
21859007 373 18338225059762563576
23522609 53 16443927092804724926
23559900 14 17417534752243543186
24771293 8 18186519879086270749
2838139 119 18337668732152151821
335352 9 17703241698133800204
3411729 13 17968090898421538474
3633792 109 18201725016406485738
3918712 181 18411414007999496800
4073 2 18333735702499902171
437795 83 17988931050430784617
465052 167 10809343330408424994
504579 68 15985104102625738529
5104073 3 15069202197577671931
5385378 56 17822005367901297994
5718773 13 9511166453169193901
5937810 71 17988649550201228345
636775 72 18334575746415913477
6691757 9 16370725972256149395
8863177 126 9511452325632856837
9896288 288 10809879887919804751
999808 66 8286206045657433209

> <PUBCHEM_SHAPE_MULTIPOLES>
573.98
24.43
2.96
1.26
4.73
0.12
0.15
-24.31
-2.41
2.21
-0.27
-0.48
0.26
2.53

> <PUBCHEM_SHAPE_SELFOVERLAP>
1223.847

> <PUBCHEM_SHAPE_VOLUME>
314.9

> <PUBCHEM_COORDINATE_TYPE>
2
5
10

$$$$
