75367678
  -OEChem-12032416403D

 47 49  0     1  0  0  0  0  0999 V2000
    0.7754   -3.0156    0.4391 O   0  0  0  0  0  0  0  0  0  0  0  0
   -3.3060   -0.9162   -1.3037 O   0  0  0  0  0  0  0  0  0  0  0  0
    2.1096    0.2911    1.0255 O   0  0  0  0  0  0  0  0  0  0  0  0
   -1.0668   -0.7167   -0.6838 N   0  0  0  0  0  0  0  0  0  0  0  0
   -2.6874    1.0822   -0.2041 C   0  0  0  0  0  0  0  0  0  0  0  0
   -3.0032    0.9580    1.2879 C   0  0  0  0  0  0  0  0  0  0  0  0
   -3.7975    1.7859   -0.9874 C   0  0  0  0  0  0  0  0  0  0  0  0
   -4.4034    0.4107    1.5599 C   0  0  0  0  0  0  0  0  0  0  0  0
   -5.1940    1.2454   -0.6816 C   0  0  0  0  0  0  0  0  0  0  0  0
   -5.4718    1.2039    0.8165 C   0  0  0  0  0  0  0  0  0  0  0  0
   -2.3923   -0.2706   -0.7841 C   0  0  0  0  0  0  0  0  0  0  0  0
   -0.0066    0.0894   -0.0707 C   0  0  0  0  0  0  0  0  0  0  0  0
   -0.7226   -2.0338   -1.2255 C   0  0  0  0  0  0  0  0  0  0  0  0
    1.2908   -0.6319    0.3052 C   0  0  2  0  0  0  0  0  0  0  0  0
   -0.5355   -3.0576   -0.1136 C   0  0  0  0  0  0  0  0  0  0  0  0
    1.0620   -1.8471    1.1995 C   0  0  0  0  0  0  0  0  0  0  0  0
    3.3218    0.5943    0.4700 C   0  0  0  0  0  0  0  0  0  0  0  0
    4.2579   -0.4148    0.2449 C   0  0  0  0  0  0  0  0  0  0  0  0
    3.6220    1.9129    0.1287 C   0  0  0  0  0  0  0  0  0  0  0  0
    5.4945   -0.1054   -0.3218 C   0  0  0  0  0  0  0  0  0  0  0  0
    4.8584    2.2225   -0.4379 C   0  0  0  0  0  0  0  0  0  0  0  0
    5.7948    1.2133   -0.6631 C   0  0  0  0  0  0  0  0  0  0  0  0
   -1.8107    1.7260   -0.3265 H   0  0  0  0  0  0  0  0  0  0  0  0
   -2.2821    0.3153    1.8045 H   0  0  0  0  0  0  0  0  0  0  0  0
   -2.9225    1.9518    1.7469 H   0  0  0  0  0  0  0  0  0  0  0  0
   -3.7804    2.8540   -0.7330 H   0  0  0  0  0  0  0  0  0  0  0  0
   -3.6116    1.7209   -2.0666 H   0  0  0  0  0  0  0  0  0  0  0  0
   -4.6055    0.4452    2.6366 H   0  0  0  0  0  0  0  0  0  0  0  0
   -4.4550   -0.6438    1.2636 H   0  0  0  0  0  0  0  0  0  0  0  0
   -5.3421    0.2504   -1.1116 H   0  0  0  0  0  0  0  0  0  0  0  0
   -5.9373    1.8916   -1.1645 H   0  0  0  0  0  0  0  0  0  0  0  0
   -5.5086    2.2270    1.2107 H   0  0  0  0  0  0  0  0  0  0  0  0
   -6.4562    0.7574    0.9970 H   0  0  0  0  0  0  0  0  0  0  0  0
   -0.3840    0.5911    0.8241 H   0  0  0  0  0  0  0  0  0  0  0  0
    0.2337    0.8912   -0.7811 H   0  0  0  0  0  0  0  0  0  0  0  0
    0.1689   -1.9335   -1.8533 H   0  0  0  0  0  0  0  0  0  0  0  0
   -1.5363   -2.3743   -1.8747 H   0  0  0  0  0  0  0  0  0  0  0  0
    1.7826   -0.9536   -0.6229 H   0  0  0  0  0  0  0  0  0  0  0  0
   -1.2841   -2.9540    0.6807 H   0  0  0  0  0  0  0  0  0  0  0  0
   -0.6493   -4.0601   -0.5399 H   0  0  0  0  0  0  0  0  0  0  0  0
    0.2768   -1.6686    1.9448 H   0  0  0  0  0  0  0  0  0  0  0  0
    1.9721   -2.0655    1.7693 H   0  0  0  0  0  0  0  0  0  0  0  0
    4.0441   -1.4456    0.5127 H   0  0  0  0  0  0  0  0  0  0  0  0
    2.8962    2.7029    0.3013 H   0  0  0  0  0  0  0  0  0  0  0  0
    6.2243   -0.8908   -0.4954 H   0  0  0  0  0  0  0  0  0  0  0  0
    5.0922    3.2493   -0.7038 H   0  0  0  0  0  0  0  0  0  0  0  0
    6.7576    1.4544   -1.1039 H   0  0  0  0  0  0  0  0  0  0  0  0
  1 15  1  0  0  0  0
  1 16  1  0  0  0  0
  2 11  2  0  0  0  0
  3 14  1  0  0  0  0
  3 17  1  0  0  0  0
  4 11  1  0  0  0  0
  4 12  1  0  0  0  0
  4 13  1  0  0  0  0
  5  6  1  0  0  0  0
  5  7  1  0  0  0  0
  5 11  1  0  0  0  0
  5 23  1  0  0  0  0
  6  8  1  0  0  0  0
  6 24  1  0  0  0  0
  6 25  1  0  0  0  0
  7  9  1  0  0  0  0
  7 26  1  0  0  0  0
  7 27  1  0  0  0  0
  8 10  1  0  0  0  0
  8 28  1  0  0  0  0
  8 29  1  0  0  0  0
  9 10  1  0  0  0  0
  9 30  1  0  0  0  0
  9 31  1  0  0  0  0
 10 32  1  0  0  0  0
 10 33  1  0  0  0  0
 12 14  1  0  0  0  0
 12 34  1  0  0  0  0
 12 35  1  0  0  0  0
 13 15  1  0  0  0  0
 13 36  1  0  0  0  0
 13 37  1  0  0  0  0
 14 16  1  0  0  0  0
 14 38  1  0  0  0  0
 15 39  1  0  0  0  0
 15 40  1  0  0  0  0
 16 41  1  0  0  0  0
 16 42  1  0  0  0  0
 17 18  2  0  0  0  0
 17 19  1  0  0  0  0
 18 20  1  0  0  0  0
 18 43  1  0  0  0  0
 19 21  2  0  0  0  0
 19 44  1  0  0  0  0
 20 22  2  0  0  0  0
 20 45  1  0  0  0  0
 21 22  1  0  0  0  0
 21 46  1  0  0  0  0
 22 47  1  0  0  0  0
M  END
> <PUBCHEM_COMPOUND_CID>
75367678

> <PUBCHEM_CONFORMER_RMSD>
0.8

> <PUBCHEM_CONFORMER_DIVERSEORDER>
1
15
77
12
88
32
182
137
158
7
41
136
129
194
118
167
33
72
138
3
60
57
139
183
112
79
197
27
14
171
103
201
93
63
142
37
125
160
62
133
150
115
119
9
73
147
28
170
38
159
152
111
91
46
95
65
23
44
164
187
179
81
4
162
156
34
168
145
110
185
123
186
11
132
76
148
163
181
174
24
6
188
121
199
52
31
97
85
146
151
58
47
99
196
17
114
13
67
19
161
169
177
82
8
178
53
126
69
39
74
10
49
157
98
108
2
96
195
16
122
20
105
54
107
192
36
180
87
154
48
29
128
190
165
43
189
172
102
59
140
141
78
127
131
166
45
42
124
184
155
153
26
144
40
70
92
191
83
51
120
61
75
5
173
143
90
116
56
80
198
68
18
25
101
21
130
175
193
64
100
22
71
89
66
106
104
50
117
109
30
113
134
135
94
200
55
84
86
176
35
149

> <PUBCHEM_MMFF94_PARTIAL_CHARGES>
22
1 -0.56
11 0.57
12 0.3
13 0.3
14 0.28
15 0.28
16 0.28
17 0.08
18 -0.15
19 -0.15
2 -0.57
20 -0.15
21 -0.15
22 -0.15
3 -0.36
4 -0.66
43 0.15
44 0.15
45 0.15
46 0.15
47 0.15
5 0.06

> <PUBCHEM_EFFECTIVE_ROTOR_COUNT>
6.6

> <PUBCHEM_PHARMACOPHORE_FEATURES>
6
1 1 acceptor
1 2 acceptor
1 3 acceptor
6 17 18 19 20 21 22 rings
6 5 6 7 8 9 10 rings
7 1 4 12 13 14 15 16 rings

> <PUBCHEM_HEAVY_ATOM_COUNT>
22

> <PUBCHEM_ATOM_DEF_STEREO_COUNT>
1

> <PUBCHEM_ATOM_UDEF_STEREO_COUNT>
0

> <PUBCHEM_BOND_DEF_STEREO_COUNT>
0

> <PUBCHEM_BOND_UDEF_STEREO_COUNT>
0

> <PUBCHEM_ISOTOPIC_ATOM_COUNT>
0

> <PUBCHEM_COMPONENT_COUNT>
1

> <PUBCHEM_CACTVS_TAUTO_COUNT>
1

> <PUBCHEM_CONFORMER_ID>
047E04FE00000001

> <PUBCHEM_MMFF94_ENERGY>
63.2561

> <PUBCHEM_FEATURE_SELFOVERLAP>
30.448

> <PUBCHEM_SHAPE_FINGERPRINT>
10613725 11 16773801372530696740
10670039 82 17917715647565331176
10681291 71 18411138034621781482
11796584 16 13470680434455717476
1200032 147 16054380942111367563
12390115 104 18340214075916960183
12516196 113 9223227429838419584
12644460 14 18189610558083069602
12788726 201 17905310077155371290
12954195 1 17988638661799522471
13544653 18 9223231849386095562
13583140 156 16298650776782566200
13631057 29 18270673299156928287
13828863 39 17531256109626408644
14251751 18 11815598805659244717
14341114 328 15430044248877166948
1454969 45 18410008880121719951
14790565 3 18410295808784204476
14840074 17 18186522115830613781
14848160 23 11167941342662670436
14955137 171 17749119889210796172
15183329 4 18060426790074128148
15352361 1 9799691510678271980
15415430 10 8430317939313914254
15575132 122 18261108543684118901
17349148 13 12031795798830210468
17980427 23 12901546828025122375
1813 80 17267787568329846278
18222031 100 7853570232087956034
18785283 64 18262515862923020530
19784866 170 18114183004003126941
200 152 10087644784114026272
204376 136 18410575080679458515
20567600 70 10231454333927975300
21033648 29 18335969922290089416
21033650 10 15481854327847345664
21236236 1 18339644554990890003
21250096 35 9511458922565655176
21756936 100 18261672683548364658
22079108 93 17385726919448000808
23198884 109 16774081765033366897
23402655 69 18339079402177896028
23559900 14 17609204668165293075
25147074 1 18269253738559872375
2637199 183 18201999915107446530
283562 15 17974279121239613426
293599 30 18410012143684805004
3009799 131 10663821840916266859
314173 85 11097852969274989152
3459 83 17631461072818894150
3759504 43 18335702770939003762
38570 142 18200890490737238815
469060 322 16009864120640818442
474 4 18411417284800307587
5104073 3 18116142450289146312
57724786 102 17981891844061767929
5924683 9 8934739781014286134
59755656 520 18272937124340614815
633830 44 18410848880729089502

> <PUBCHEM_SHAPE_MULTIPOLES>
430.16
12.96
2.7
1.24
4.8
1.85
-0.12
-9.82
0.39
0.6
0.23
-1.17
0.07
-0.69

> <PUBCHEM_SHAPE_SELFOVERLAP>
896.141

> <PUBCHEM_SHAPE_VOLUME>
240

> <PUBCHEM_COORDINATE_TYPE>
2
5
10

$$$$
