51137885
  -OEChem-12032416243D

 43 46  0     1  0  0  0  0  0999 V2000
   -6.2612    2.1111    0.0357 F   0  0  0  0  0  0  0  0  0  0  0  0
   -7.4608   -0.2965    0.5268 F   0  0  0  0  0  0  0  0  0  0  0  0
   -1.1652   -0.3588   -0.0580 N   0  0  1  0  0  0  0  0  0  0  0  0
    3.4350   -1.1308    0.2379 N   0  0  0  0  0  0  0  0  0  0  0  0
    2.9314    1.0328    0.3109 N   0  0  0  0  0  0  0  0  0  0  0  0
    1.0310   -0.5622    0.7386 C   0  0  1  0  0  0  0  0  0  0  0  0
    0.2661    0.4630    1.5938 C   0  0  0  0  0  0  0  0  0  0  0  0
    0.1721   -0.7350   -0.5213 C   0  0  0  0  0  0  0  0  0  0  0  0
   -0.9577    0.8322    0.7656 C   0  0  0  0  0  0  0  0  0  0  0  0
    2.4625   -0.1892    0.4293 C   0  0  0  0  0  0  0  0  0  0  0  0
   -2.0868   -0.1179   -1.1585 C   0  0  0  0  0  0  0  0  0  0  0  0
    4.6097   -0.4727   -0.0214 C   0  0  0  0  0  0  0  0  0  0  0  0
   -3.5227   -0.1659   -0.7081 C   0  0  0  0  0  0  0  0  0  0  0  0
    4.2692    0.8763    0.0298 C   0  0  0  0  0  0  0  0  0  0  0  0
    3.2606   -2.5646    0.2974 C   0  0  0  0  0  0  0  0  0  0  0  0
    5.9014   -0.9276   -0.2880 C   0  0  0  0  0  0  0  0  0  0  0  0
    5.2639    1.8427   -0.1959 C   0  0  0  0  0  0  0  0  0  0  0  0
   -4.2409    1.0182   -0.5413 C   0  0  0  0  0  0  0  0  0  0  0  0
   -4.1347   -1.3941   -0.4580 C   0  0  0  0  0  0  0  0  0  0  0  0
    6.8790    0.0480   -0.5104 C   0  0  0  0  0  0  0  0  0  0  0  0
    6.5681    1.4090   -0.4656 C   0  0  0  0  0  0  0  0  0  0  0  0
   -5.5714    0.9740   -0.1244 C   0  0  0  0  0  0  0  0  0  0  0  0
   -5.4651   -1.4381   -0.0409 C   0  0  0  0  0  0  0  0  0  0  0  0
   -6.1835   -0.2541    0.1258 C   0  0  0  0  0  0  0  0  0  0  0  0
    1.0230   -1.5037    1.3048 H   0  0  0  0  0  0  0  0  0  0  0  0
   -0.0483   -0.0116    2.5323 H   0  0  0  0  0  0  0  0  0  0  0  0
    0.8502    1.3506    1.8571 H   0  0  0  0  0  0  0  0  0  0  0  0
    0.1977   -1.7676   -0.8853 H   0  0  0  0  0  0  0  0  0  0  0  0
    0.5182   -0.0757   -1.3289 H   0  0  0  0  0  0  0  0  0  0  0  0
   -0.7361    1.7185    0.1571 H   0  0  0  0  0  0  0  0  0  0  0  0
   -1.8145    1.0542    1.4095 H   0  0  0  0  0  0  0  0  0  0  0  0
   -1.8699    0.8237   -1.6811 H   0  0  0  0  0  0  0  0  0  0  0  0
   -1.9688   -0.9013   -1.9206 H   0  0  0  0  0  0  0  0  0  0  0  0
    4.1472   -3.0719   -0.0871 H   0  0  0  0  0  0  0  0  0  0  0  0
    2.4021   -2.8425   -0.3185 H   0  0  0  0  0  0  0  0  0  0  0  0
    3.0969   -2.8461    1.3406 H   0  0  0  0  0  0  0  0  0  0  0  0
    6.1521   -1.9814   -0.3226 H   0  0  0  0  0  0  0  0  0  0  0  0
    5.0324    2.9026   -0.1632 H   0  0  0  0  0  0  0  0  0  0  0  0
   -3.7759    1.9818   -0.7313 H   0  0  0  0  0  0  0  0  0  0  0  0
   -3.5858   -2.3236   -0.5843 H   0  0  0  0  0  0  0  0  0  0  0  0
    7.9002   -0.2598   -0.7216 H   0  0  0  0  0  0  0  0  0  0  0  0
    7.3494    2.1437   -0.6425 H   0  0  0  0  0  0  0  0  0  0  0  0
   -5.9419   -2.3941    0.1543 H   0  0  0  0  0  0  0  0  0  0  0  0
  1 22  1  0  0  0  0
  2 24  1  0  0  0  0
  3  8  1  0  0  0  0
  3  9  1  0  0  0  0
  3 11  1  0  0  0  0
  4 10  1  0  0  0  0
  4 12  1  0  0  0  0
  4 15  1  0  0  0  0
  5 10  2  0  0  0  0
  5 14  1  0  0  0  0
  6  7  1  0  0  0  0
  6  8  1  0  0  0  0
  6 10  1  0  0  0  0
  6 25  1  0  0  0  0
  7  9  1  0  0  0  0
  7 26  1  0  0  0  0
  7 27  1  0  0  0  0
  8 28  1  0  0  0  0
  8 29  1  0  0  0  0
  9 30  1  0  0  0  0
  9 31  1  0  0  0  0
 11 13  1  0  0  0  0
 11 32  1  0  0  0  0
 11 33  1  0  0  0  0
 12 14  1  0  0  0  0
 12 16  2  0  0  0  0
 13 18  2  0  0  0  0
 13 19  1  0  0  0  0
 14 17  2  0  0  0  0
 15 34  1  0  0  0  0
 15 35  1  0  0  0  0
 15 36  1  0  0  0  0
 16 20  1  0  0  0  0
 16 37  1  0  0  0  0
 17 21  1  0  0  0  0
 17 38  1  0  0  0  0
 18 22  1  0  0  0  0
 18 39  1  0  0  0  0
 19 23  2  0  0  0  0
 19 40  1  0  0  0  0
 20 21  2  0  0  0  0
 20 41  1  0  0  0  0
 21 42  1  0  0  0  0
 22 24  2  0  0  0  0
 23 24  1  0  0  0  0
 23 43  1  0  0  0  0
M  END
> <PUBCHEM_COMPOUND_CID>
51137885

> <PUBCHEM_CONFORMER_RMSD>
0.8

> <PUBCHEM_CONFORMER_DIVERSEORDER>
1
67
13
49
47
69
68
32
11
65
43
21
29
52
2
15
64
57
8
63
58
26
28
48
44
36
24
70
59
42
40
7
14
46
10
53
17
55
35
45
51
22
50
9
38
27
16
54
41
33
60
5
30
3
19
39
20
12
25
62
31
66
4
34
6
23
61
37
18
56

> <PUBCHEM_MMFF94_PARTIAL_CHARGES>
30
1 -0.19
10 0.01
11 0.41
12 -0.15
13 -0.14
14 0.23
15 0.26
16 -0.15
17 -0.15
18 -0.15
19 -0.15
2 -0.19
20 -0.15
21 -0.15
22 0.19
23 -0.15
24 0.19
3 -0.81
37 0.15
38 0.15
39 0.15
4 0.05
40 0.15
41 0.15
42 0.15
43 0.15
5 -0.57
6 0.18
8 0.27
9 0.27

> <PUBCHEM_EFFECTIVE_ROTOR_COUNT>
4

> <PUBCHEM_PHARMACOPHORE_FEATURES>
6
1 3 cation
3 4 5 10 cation
5 3 6 7 8 9 rings
5 4 5 10 12 14 rings
6 12 14 16 17 20 21 rings
6 13 18 19 22 23 24 rings

> <PUBCHEM_HEAVY_ATOM_COUNT>
24

> <PUBCHEM_ATOM_DEF_STEREO_COUNT>
1

> <PUBCHEM_ATOM_UDEF_STEREO_COUNT>
0

> <PUBCHEM_BOND_DEF_STEREO_COUNT>
0

> <PUBCHEM_BOND_UDEF_STEREO_COUNT>
0

> <PUBCHEM_ISOTOPIC_ATOM_COUNT>
0

> <PUBCHEM_COMPONENT_COUNT>
1

> <PUBCHEM_CACTVS_TAUTO_COUNT>
1

> <PUBCHEM_CONFORMER_ID>
030C4D5D00000001

> <PUBCHEM_MMFF94_ENERGY>
49.1102

> <PUBCHEM_FEATURE_SELFOVERLAP>
30.556

> <PUBCHEM_SHAPE_FINGERPRINT>
10066227 112 18411132503316314869
10299344 5 18272089413829124927
10411042 1 17976255739511866986
10595046 47 18409728447898662089
106641 1 11891338668876127980
11089746 13 11815895660776296055
11315181 36 18187083967184471197
11524674 6 16128657487879183375
11646440 116 16081090372471848828
11719270 70 18343015572101306730
11796584 16 14476956818287088940
12107183 9 17619630185500274211
12166972 35 18186804690683065852
12236239 1 18342175570401160732
12730499 353 18113900451290435474
12788726 201 17489029266566303994
12916748 109 15647049344339829908
13533116 47 16733535032339677888
14251752 14 18131913749713081632
14251764 18 18060700607166360719
14341114 176 18409731755471866477
14849402 71 17750525137780219852
14856354 85 17988647428323002511
14933364 13 18410013238701057509
15183329 4 18272649030608278241
15537594 2 17418088819344993622
17844677 252 18410296900006220717
18006028 8 14549020983287505658
18335252 98 18261117387374780275
19489759 90 10519988171325989759
21267235 1 18272938198419931790
21792961 116 17917714565169645015
220451 1 17989484126253963159
221357 26 18411418406588995396
22224240 67 15647053784877279609
23035841 295 18343301474650612267
23198884 109 18259985976834570457
23424782 7 18114750429222949571
23516275 137 18058753332560307095
23522609 53 17844832415069067329
23536379 177 18410009931417815056
23559900 14 18342450490983607872
23569914 2 17616194430882340933
23569943 247 16879898648247882210
29717793 49 17775290448317237180
3004659 81 18343018874782873122
314173 85 15052015675515626650
34797466 226 18343026601017374620
3545911 37 18333731325426495806
4073 2 18041284351989130474
4098825 35 18262235521700825676
4325135 7 18259985993972241591
4340502 62 17749387066389324698
4463277 17 18343301474323499673
5104073 3 14201941369136919013
5265222 85 18200032978952598662
5283156 175 17703793596682973598
53794403 172 17242182460018313892
542803 24 18409162220848342166
5758199 1 17530966890559724312
59682541 35 15140968387096812261
59755656 215 14117808998067703428
59755656 520 17530960315297766402
6328613 192 18341331102943940169

> <PUBCHEM_SHAPE_MULTIPOLES>
464.42
20.07
1.77
0.93
7.53
0.22
0.11
-3.5
-2.39
-0.65
0.01
0.1
-0.05
-0.34

> <PUBCHEM_SHAPE_SELFOVERLAP>
1020.012

> <PUBCHEM_SHAPE_VOLUME>
255.9

> <PUBCHEM_COORDINATE_TYPE>
2
5
10

$$$$
