45360706
  -OEChem-12032416333D

 69 73  0     1  0  0  0  0  0999 V2000
    4.6428   -4.2947   -1.5962 O   0  0  0  0  0  0  0  0  0  0  0  0
   -2.1280   -2.3235    2.6905 O   0  0  0  0  0  0  0  0  0  0  0  0
    4.7910    3.3229    0.2928 O   0  0  0  0  0  0  0  0  0  0  0  0
    4.9031    6.2459    0.9791 O   0  0  0  0  0  0  0  0  0  0  0  0
    1.7102   -2.4703   -0.4152 N   0  0  1  0  0  0  0  0  0  0  0  0
    3.2252   -4.7714    0.1171 N   0  0  0  0  0  0  0  0  0  0  0  0
    3.9208    0.3897   -0.1504 N   0  0  0  0  0  0  0  0  0  0  0  0
   -3.2752   -1.2432    0.9828 N   0  0  0  0  0  0  0  0  0  0  0  0
   -5.4188    0.4620    0.0462 N   0  0  0  0  0  0  0  0  0  0  0  0
   -7.2265    0.8964   -1.4101 N   0  0  0  0  0  0  0  0  0  0  0  0
    2.7281   -2.8604   -1.3990 C   0  0  1  0  0  0  0  0  0  0  0  0
    1.0805   -3.5909    0.2741 C   0  0  1  0  0  0  0  0  0  0  0  0
    2.9454   -0.5531   -0.6739 C   0  0  1  0  0  0  0  0  0  0  0  0
    3.5575   -1.5858   -1.6210 C   0  0  0  0  0  0  0  0  0  0  0  0
    2.2863   -1.4050    0.4021 C   0  0  0  0  0  0  0  0  0  0  0  0
    2.1205   -4.4407    0.9873 C   0  0  0  0  0  0  0  0  0  0  0  0
   -0.0229   -3.1509    1.2371 C   0  0  0  0  0  0  0  0  0  0  0  0
    3.6232   -4.0151   -0.9586 C   0  0  0  0  0  0  0  0  0  0  0  0
   -1.1185   -2.3564    0.5415 C   0  0  0  0  0  0  0  0  0  0  0  0
    4.2191    1.4302   -1.1264 C   0  0  0  0  0  0  0  0  0  0  0  0
   -2.2120   -1.9773    1.5099 C   0  0  0  0  0  0  0  0  0  0  0  0
   -3.3681   -0.8236   -0.4175 C   0  0  0  0  0  0  0  0  0  0  0  0
   -4.3757   -0.8421    1.8553 C   0  0  0  0  0  0  0  0  0  0  0  0
    5.2385    2.4094   -0.6082 C   0  0  0  0  0  0  0  0  0  0  0  0
   -4.8025   -0.5192   -0.8502 C   0  0  0  0  0  0  0  0  0  0  0  0
   -4.9722    0.5015    1.4415 C   0  0  0  0  0  0  0  0  0  0  0  0
    6.5794    2.5916   -0.8559 C   0  0  0  0  0  0  0  0  0  0  0  0
   -6.4274    1.3116   -0.4019 C   0  0  0  0  0  0  0  0  0  0  0  0
    5.8579    4.0968    0.6242 C   0  0  0  0  0  0  0  0  0  0  0  0
    6.9816    3.6873   -0.0555 C   0  0  0  0  0  0  0  0  0  0  0  0
   -6.5449    2.5419    0.2247 C   0  0  0  0  0  0  0  0  0  0  0  0
    5.6069    5.1673    1.5995 C   0  0  0  0  0  0  0  0  0  0  0  0
   -7.5471    3.4012   -0.2117 C   0  0  0  0  0  0  0  0  0  0  0  0
   -8.1891    1.7584   -1.8074 C   0  0  0  0  0  0  0  0  0  0  0  0
   -8.3893    3.0096   -1.2466 C   0  0  0  0  0  0  0  0  0  0  0  0
    2.2385   -3.1688   -2.3303 H   0  0  0  0  0  0  0  0  0  0  0  0
    0.6066   -4.2168   -0.4958 H   0  0  0  0  0  0  0  0  0  0  0  0
    2.1436   -0.0128   -1.1999 H   0  0  0  0  0  0  0  0  0  0  0  0
    3.4868   -1.2395   -2.6585 H   0  0  0  0  0  0  0  0  0  0  0  0
    4.6192   -1.7443   -1.3954 H   0  0  0  0  0  0  0  0  0  0  0  0
    1.5332   -0.8274    0.9472 H   0  0  0  0  0  0  0  0  0  0  0  0
    3.0270   -1.7831    1.1171 H   0  0  0  0  0  0  0  0  0  0  0  0
    1.6844   -5.3853    1.3300 H   0  0  0  0  0  0  0  0  0  0  0  0
    2.5399   -3.9339    1.8634 H   0  0  0  0  0  0  0  0  0  0  0  0
    0.3975   -2.5691    2.0678 H   0  0  0  0  0  0  0  0  0  0  0  0
   -0.4636   -4.0472    1.6950 H   0  0  0  0  0  0  0  0  0  0  0  0
    3.8183   -5.5500    0.3873 H   0  0  0  0  0  0  0  0  0  0  0  0
    3.5451    0.8267    0.6917 H   0  0  0  0  0  0  0  0  0  0  0  0
   -1.5509   -2.9760   -0.2515 H   0  0  0  0  0  0  0  0  0  0  0  0
   -0.7199   -1.4388    0.0973 H   0  0  0  0  0  0  0  0  0  0  0  0
    4.6120    0.9893   -2.0505 H   0  0  0  0  0  0  0  0  0  0  0  0
    3.3113    1.9885   -1.3877 H   0  0  0  0  0  0  0  0  0  0  0  0
   -2.9503   -1.5894   -1.0756 H   0  0  0  0  0  0  0  0  0  0  0  0
   -2.7447    0.0735   -0.5172 H   0  0  0  0  0  0  0  0  0  0  0  0
   -4.0348   -0.7976    2.8952 H   0  0  0  0  0  0  0  0  0  0  0  0
   -5.1334   -1.6330    1.7937 H   0  0  0  0  0  0  0  0  0  0  0  0
   -5.4028   -1.4370   -0.8426 H   0  0  0  0  0  0  0  0  0  0  0  0
   -4.7797   -0.1435   -1.8804 H   0  0  0  0  0  0  0  0  0  0  0  0
   -4.2190    1.2900    1.5612 H   0  0  0  0  0  0  0  0  0  0  0  0
   -5.8091    0.7167    2.1173 H   0  0  0  0  0  0  0  0  0  0  0  0
    7.1922    2.0086   -1.5284 H   0  0  0  0  0  0  0  0  0  0  0  0
    7.9683    4.1222    0.0153 H   0  0  0  0  0  0  0  0  0  0  0  0
   -5.8871    2.8752    1.0197 H   0  0  0  0  0  0  0  0  0  0  0  0
    6.5473    5.5589    2.0002 H   0  0  0  0  0  0  0  0  0  0  0  0
    5.0029    4.7965    2.4338 H   0  0  0  0  0  0  0  0  0  0  0  0
   -7.6693    4.3763    0.2503 H   0  0  0  0  0  0  0  0  0  0  0  0
   -8.8187    1.4058   -2.6177 H   0  0  0  0  0  0  0  0  0  0  0  0
   -9.1765    3.6635   -1.6037 H   0  0  0  0  0  0  0  0  0  0  0  0
    4.7619    6.9223    1.6634 H   0  0  0  0  0  0  0  0  0  0  0  0
  1 18  2  0  0  0  0
  2 21  2  0  0  0  0
  3 24  1  0  0  0  0
  3 29  1  0  0  0  0
  4 32  1  0  0  0  0
  4 69  1  0  0  0  0
  5 11  1  0  0  0  0
  5 12  1  0  0  0  0
  5 15  1  0  0  0  0
  6 16  1  0  0  0  0
  6 18  1  0  0  0  0
  6 47  1  0  0  0  0
  7 13  1  0  0  0  0
  7 20  1  0  0  0  0
  7 48  1  0  0  0  0
  8 21  1  0  0  0  0
  8 22  1  0  0  0  0
  8 23  1  0  0  0  0
  9 25  1  0  0  0  0
  9 26  1  0  0  0  0
  9 28  1  0  0  0  0
 10 28  1  0  0  0  0
 10 34  2  0  0  0  0
 11 14  1  0  0  0  0
 11 18  1  0  0  0  0
 11 36  1  0  0  0  0
 12 16  1  0  0  0  0
 12 17  1  0  0  0  0
 12 37  1  0  0  0  0
 13 14  1  0  0  0  0
 13 15  1  0  0  0  0
 13 38  1  0  0  0  0
 14 39  1  0  0  0  0
 14 40  1  0  0  0  0
 15 41  1  0  0  0  0
 15 42  1  0  0  0  0
 16 43  1  0  0  0  0
 16 44  1  0  0  0  0
 17 19  1  0  0  0  0
 17 45  1  0  0  0  0
 17 46  1  0  0  0  0
 19 21  1  0  0  0  0
 19 49  1  0  0  0  0
 19 50  1  0  0  0  0
 20 24  1  0  0  0  0
 20 51  1  0  0  0  0
 20 52  1  0  0  0  0
 22 25  1  0  0  0  0
 22 53  1  0  0  0  0
 22 54  1  0  0  0  0
 23 26  1  0  0  0  0
 23 55  1  0  0  0  0
 23 56  1  0  0  0  0
 24 27  2  0  0  0  0
 25 57  1  0  0  0  0
 25 58  1  0  0  0  0
 26 59  1  0  0  0  0
 26 60  1  0  0  0  0
 27 30  1  0  0  0  0
 27 61  1  0  0  0  0
 28 31  2  0  0  0  0
 29 30  2  0  0  0  0
 29 32  1  0  0  0  0
 30 62  1  0  0  0  0
 31 33  1  0  0  0  0
 31 63  1  0  0  0  0
 32 64  1  0  0  0  0
 32 65  1  0  0  0  0
 33 35  2  0  0  0  0
 33 66  1  0  0  0  0
 34 35  1  0  0  0  0
 34 67  1  0  0  0  0
 35 68  1  0  0  0  0
M  END
> <PUBCHEM_COMPOUND_CID>
45360706

> <PUBCHEM_CONFORMER_RMSD>
1.2

> <PUBCHEM_CONFORMER_DIVERSEORDER>
1
71
58
16
42
48
61
35
31
43
19
49
74
66
15
14
32
73
24
68
13
7
67
69
4
38
56
76
34
53
40
75
45
5
23
78
46
26
25
47
64
6
41
60
9
51
33
10
77
59
3
44
8
12
63
70
29
65
39
37
11
22
52
20
72
30
18
27
57
17
2
36
54
50
21
62
28
55

> <PUBCHEM_MMFF94_PARTIAL_CHARGES>
42
1 -0.57
10 -0.62
11 0.33
12 0.27
13 0.27
15 0.27
16 0.3
18 0.57
19 0.06
2 -0.57
20 0.45
21 0.57
22 0.3
23 0.3
24 -0.04
25 0.37
26 0.37
27 -0.15
28 0.41
29 -0.04
3 -0.28
30 -0.15
31 -0.15
32 0.46
33 -0.15
34 0.16
35 -0.15
4 -0.68
47 0.37
48 0.36
5 -0.81
6 -0.73
61 0.15
62 0.15
63 0.15
66 0.15
67 0.15
68 0.15
69 0.4
7 -0.9
8 -0.66
9 -0.84

> <PUBCHEM_EFFECTIVE_ROTOR_COUNT>
11.4

> <PUBCHEM_PHARMACOPHORE_FEATURES>
16
1 1 acceptor
1 10 acceptor
1 2 acceptor
1 3 acceptor
1 4 acceptor
1 4 donor
1 5 cation
1 6 donor
1 7 cation
1 7 donor
1 9 cation
5 3 24 27 29 30 rings
5 5 11 13 14 15 rings
6 10 28 31 33 34 35 rings
6 5 6 11 12 16 18 rings
6 8 9 22 23 25 26 rings

> <PUBCHEM_HEAVY_ATOM_COUNT>
35

> <PUBCHEM_ATOM_DEF_STEREO_COUNT>
3

> <PUBCHEM_ATOM_UDEF_STEREO_COUNT>
0

> <PUBCHEM_BOND_DEF_STEREO_COUNT>
0

> <PUBCHEM_BOND_UDEF_STEREO_COUNT>
0

> <PUBCHEM_ISOTOPIC_ATOM_COUNT>
0

> <PUBCHEM_COMPONENT_COUNT>
1

> <PUBCHEM_CACTVS_TAUTO_COUNT>
3

> <PUBCHEM_CONFORMER_ID>
02B4264200000001

> <PUBCHEM_MMFF94_ENERGY>
79.8381

> <PUBCHEM_FEATURE_SELFOVERLAP>
81.389

> <PUBCHEM_SHAPE_FINGERPRINT>
10675989 125 18335702680733855393
10771551 21 18130517352824889248
10838868 217 18266178529645039364
10864689 126 18338805614998070588
10904742 38 18266456701427512936
11112241 14 18408606989589520231
11135609 127 18337664222969598335
11297010 23 18272939306569305718
11374522 34 17905049501415871309
11386260 185 18127697032701061350
11621639 179 18337121146520920196
11720765 8 18120376454451010122
12975358 362 18115611325622407757
14223995 32 18265052604020932420
15183329 4 17985260769517414407
15198563 99 17621906197005541214
15530120 55 17845637223526368295
17899979 129 18340771455297766391
19053607 189 18340756139381300144
19246450 95 18266167526555220064
19304671 126 18262521390682352721
20501277 180 18265043653879398213
21033648 29 17168723946337816531
22899556 56 17243307294683284794
23522609 53 16881044632418982044
23569914 2 17823670067888378837
3525247 18 18337107981534833429
376196 1 18196946667911522794
3862424 121 9367078791354252312
4330586 98 13182461148643117884
4760202 170 18340770330781537950
58902169 19 18055905503856420303
59521099 67 18050560747225697474
6677587 24 17775575229796345846

> <PUBCHEM_SHAPE_MULTIPOLES>
666.92
24.13
8.72
1.77
35.01
4.1
-0.38
38.81
7.54
-19.19
-1.97
1.01
-0.5
5.96

> <PUBCHEM_SHAPE_SELFOVERLAP>
1417.524

> <PUBCHEM_SHAPE_VOLUME>
369.9

> <PUBCHEM_COORDINATE_TYPE>
2
5
10

$$$$
