7050376
  -OEChem-12032416363D

 62 66  0     1  0  0  0  0  0999 V2000
    3.9733   -1.5339   -0.8949 O   0  0  0  0  0  0  0  0  0  0  0  0
   -0.4485   -3.0564   -0.1019 O   0  0  0  0  0  0  0  0  0  0  0  0
   -2.8977    1.0215    2.2487 O   0  0  0  0  0  0  0  0  0  0  0  0
    9.9011    0.4968    0.6572 O   0  0  0  0  0  0  0  0  0  0  0  0
   -8.1746    0.5151   -1.0556 O   0  0  0  0  0  0  0  0  0  0  0  0
   -1.2568   -0.0489    1.0179 N   0  0  0  0  0  0  0  0  0  0  0  0
    2.7991   -0.0863    0.5002 N   0  0  0  0  0  0  0  0  0  0  0  0
    7.8533    1.0451   -0.2932 N   0  0  0  0  0  0  0  0  0  0  0  0
   -2.6264   -2.3985   -0.1498 N   0  0  0  0  0  0  0  0  0  0  0  0
    1.5771   -0.8550    0.6022 C   0  0  2  0  0  0  0  0  0  0  0  0
    0.6279   -0.4871   -0.5502 C   0  0  0  0  0  0  0  0  0  0  0  0
   -0.8601   -0.6821   -0.2334 C   0  0  1  0  0  0  0  0  0  0  0  0
    0.9288   -0.6797    1.9806 C   0  0  0  0  0  0  0  0  0  0  0  0
   -0.1957    0.3457    1.9490 C   0  0  0  0  0  0  0  0  0  0  0  0
    5.0154    0.4961   -0.1985 C   0  0  0  0  0  0  0  0  0  0  0  0
    5.9347    0.1722    0.9823 C   0  0  0  0  0  0  0  0  0  0  0  0
    5.7928    0.4699   -1.5173 C   0  0  0  0  0  0  0  0  0  0  0  0
    3.8945   -0.4958   -0.2431 C   0  0  0  0  0  0  0  0  0  0  0  0
    7.1571    1.0864    0.9943 C   0  0  0  0  0  0  0  0  0  0  0  0
    7.0188    1.3786   -1.4541 C   0  0  0  0  0  0  0  0  0  0  0  0
   -1.2723   -2.1400   -0.1232 C   0  0  0  0  0  0  0  0  0  0  0  0
   -2.5715    0.3181    1.2910 C   0  0  0  0  0  0  0  0  0  0  0  0
   -3.6584   -0.1856    0.4094 C   0  0  0  0  0  0  0  0  0  0  0  0
   -3.6931   -1.4750   -0.1470 C   0  0  0  0  0  0  0  0  0  0  0  0
    9.2137    0.7417   -0.3374 C   0  0  0  0  0  0  0  0  0  0  0  0
   -4.7897    0.6439    0.2971 C   0  0  0  0  0  0  0  0  0  0  0  0
   -4.8851   -1.9275   -0.7400 C   0  0  0  0  0  0  0  0  0  0  0  0
   -5.9471    0.1954   -0.3377 C   0  0  0  0  0  0  0  0  0  0  0  0
    9.8563    0.7168   -1.7011 C   0  0  0  0  0  0  0  0  0  0  0  0
   -5.9998   -1.0963   -0.8443 C   0  0  0  0  0  0  0  0  0  0  0  0
   -7.0956    1.0613   -0.4430 C   0  0  0  0  0  0  0  0  0  0  0  0
   -7.3510    2.3502   -0.0532 C   0  0  0  0  0  0  0  0  0  0  0  0
   -8.6816    2.6203   -0.4530 C   0  0  0  0  0  0  0  0  0  0  0  0
   -9.1389    1.4728   -1.0579 C   0  0  0  0  0  0  0  0  0  0  0  0
    1.8605   -1.9102    0.5021 H   0  0  0  0  0  0  0  0  0  0  0  0
    0.9068   -1.0539   -1.4478 H   0  0  0  0  0  0  0  0  0  0  0  0
    0.7746    0.5713   -0.8099 H   0  0  0  0  0  0  0  0  0  0  0  0
   -1.4303   -0.2333   -1.0568 H   0  0  0  0  0  0  0  0  0  0  0  0
    1.6730   -0.4005    2.7359 H   0  0  0  0  0  0  0  0  0  0  0  0
    0.5089   -1.6431    2.2983 H   0  0  0  0  0  0  0  0  0  0  0  0
   -0.6154    0.4670    2.9535 H   0  0  0  0  0  0  0  0  0  0  0  0
    0.1752    1.3271    1.6305 H   0  0  0  0  0  0  0  0  0  0  0  0
    4.6052    1.5063   -0.0665 H   0  0  0  0  0  0  0  0  0  0  0  0
    2.8224    0.8210    0.9569 H   0  0  0  0  0  0  0  0  0  0  0  0
    6.2645   -0.8736    0.9206 H   0  0  0  0  0  0  0  0  0  0  0  0
    5.3905    0.2730    1.9290 H   0  0  0  0  0  0  0  0  0  0  0  0
    5.1440    0.7789   -2.3457 H   0  0  0  0  0  0  0  0  0  0  0  0
    6.1284   -0.5511   -1.7430 H   0  0  0  0  0  0  0  0  0  0  0  0
    6.8571    2.1260    1.1712 H   0  0  0  0  0  0  0  0  0  0  0  0
    7.8267    0.7960    1.8100 H   0  0  0  0  0  0  0  0  0  0  0  0
    7.5724    1.3057   -2.3917 H   0  0  0  0  0  0  0  0  0  0  0  0
    6.7118    2.4253   -1.3413 H   0  0  0  0  0  0  0  0  0  0  0  0
   -2.8812   -3.3728   -0.2940 H   0  0  0  0  0  0  0  0  0  0  0  0
   -4.7602    1.6429    0.7282 H   0  0  0  0  0  0  0  0  0  0  0  0
   -4.9465   -2.9313   -1.1566 H   0  0  0  0  0  0  0  0  0  0  0  0
    9.3810   -0.0412   -2.3293 H   0  0  0  0  0  0  0  0  0  0  0  0
   10.9153    0.4600   -1.5998 H   0  0  0  0  0  0  0  0  0  0  0  0
    9.7882    1.7023   -2.1695 H   0  0  0  0  0  0  0  0  0  0  0  0
   -6.8860   -1.4944   -1.3316 H   0  0  0  0  0  0  0  0  0  0  0  0
   -6.6793    3.0277    0.4546 H   0  0  0  0  0  0  0  0  0  0  0  0
   -9.2377    3.5365   -0.3173 H   0  0  0  0  0  0  0  0  0  0  0  0
  -10.0753    1.1917   -1.5168 H   0  0  0  0  0  0  0  0  0  0  0  0
  1 18  2  0  0  0  0
  2 21  2  0  0  0  0
  3 22  2  0  0  0  0
  4 25  2  0  0  0  0
  5 31  1  0  0  0  0
  5 34  1  0  0  0  0
  6 12  1  0  0  0  0
  6 14  1  0  0  0  0
  6 22  1  0  0  0  0
  7 10  1  0  0  0  0
  7 18  1  0  0  0  0
  7 44  1  0  0  0  0
  8 19  1  0  0  0  0
  8 20  1  0  0  0  0
  8 25  1  0  0  0  0
  9 21  1  0  0  0  0
  9 24  1  0  0  0  0
  9 53  1  0  0  0  0
 10 11  1  0  0  0  0
 10 13  1  0  0  0  0
 10 35  1  0  0  0  0
 11 12  1  0  0  0  0
 11 36  1  0  0  0  0
 11 37  1  0  0  0  0
 12 21  1  0  0  0  0
 12 38  1  0  0  0  0
 13 14  1  0  0  0  0
 13 39  1  0  0  0  0
 13 40  1  0  0  0  0
 14 41  1  0  0  0  0
 14 42  1  0  0  0  0
 15 16  1  0  0  0  0
 15 17  1  0  0  0  0
 15 18  1  0  0  0  0
 15 43  1  0  0  0  0
 16 19  1  0  0  0  0
 16 45  1  0  0  0  0
 16 46  1  0  0  0  0
 17 20  1  0  0  0  0
 17 47  1  0  0  0  0
 17 48  1  0  0  0  0
 19 49  1  0  0  0  0
 19 50  1  0  0  0  0
 20 51  1  0  0  0  0
 20 52  1  0  0  0  0
 22 23  1  0  0  0  0
 23 24  2  0  0  0  0
 23 26  1  0  0  0  0
 24 27  1  0  0  0  0
 25 29  1  0  0  0  0
 26 28  2  0  0  0  0
 26 54  1  0  0  0  0
 27 30  2  0  0  0  0
 27 55  1  0  0  0  0
 28 30  1  0  0  0  0
 28 31  1  0  0  0  0
 29 56  1  0  0  0  0
 29 57  1  0  0  0  0
 29 58  1  0  0  0  0
 30 59  1  0  0  0  0
 31 32  2  0  0  0  0
 32 33  1  0  0  0  0
 32 60  1  0  0  0  0
 33 34  2  0  0  0  0
 33 61  1  0  0  0  0
 34 62  1  0  0  0  0
M  END
> <PUBCHEM_COMPOUND_CID>
7050376

> <PUBCHEM_CONFORMER_RMSD>
1

> <PUBCHEM_CONFORMER_DIVERSEORDER>
3
7
10
2
29
24
1
8
13
23
15
11
18
19
31
28
14
5
26
6
22
30
21
12
20
17
25
4
16
9
27

> <PUBCHEM_MMFF94_PARTIAL_CHARGES>
38
1 -0.57
10 0.3
12 0.36
14 0.3
15 0.06
18 0.57
19 0.3
2 -0.57
20 0.3
21 0.57
22 0.54
23 0.09
24 0.12
25 0.57
26 -0.15
27 -0.15
28 0.05
29 0.06
3 -0.57
30 -0.15
31 0.09
32 -0.15
33 -0.15
34 -0.01
4 -0.57
44 0.37
5 -0.28
53 0.37
54 0.15
55 0.15
59 0.15
6 -0.66
60 0.15
61 0.15
62 0.15
7 -0.73
8 -0.66
9 -0.55

> <PUBCHEM_EFFECTIVE_ROTOR_COUNT>
7.2

> <PUBCHEM_PHARMACOPHORE_FEATURES>
12
1 1 acceptor
1 2 acceptor
1 3 acceptor
1 4 acceptor
1 5 acceptor
1 7 donor
1 9 donor
5 5 31 32 33 34 rings
6 23 24 26 27 28 30 rings
6 6 10 11 12 13 14 rings
6 8 15 16 17 19 20 rings
7 6 9 12 21 22 23 24 rings

> <PUBCHEM_HEAVY_ATOM_COUNT>
34

> <PUBCHEM_ATOM_DEF_STEREO_COUNT>
2

> <PUBCHEM_ATOM_UDEF_STEREO_COUNT>
0

> <PUBCHEM_BOND_DEF_STEREO_COUNT>
0

> <PUBCHEM_BOND_UDEF_STEREO_COUNT>
0

> <PUBCHEM_ISOTOPIC_ATOM_COUNT>
0

> <PUBCHEM_COMPONENT_COUNT>
1

> <PUBCHEM_CACTVS_TAUTO_COUNT>
6

> <PUBCHEM_CONFORMER_ID>
006B948800000003

> <PUBCHEM_MMFF94_ENERGY>
92.8213

> <PUBCHEM_FEATURE_SELFOVERLAP>
60.928

> <PUBCHEM_SHAPE_FINGERPRINT>
10 15 12613043785853044439
10076449 9 14620797106764905466
10190206 1 17775289318656748065
10533779 47 14490465349611883336
10883706 142 17095242519042796907
11135609 187 18412263926129236795
11135609 99 10807638018144438461
11135926 11 15984833657130696327
11181472 205 18260831467428417904
11315181 36 17846785126307879491
11409948 41 15769507422446463468
11411753 3 17415823933319910507
11456790 92 15285352921051063364
11621639 179 18116137893387731381
11828042 75 13325984769673566597
12013929 2 18343304770087760580
12089408 11 18040150752044130462
12758862 11 17917706945881805946
12838862 33 16988837290303433262
13383668 90 16128363863047296469
13530399 1 17822017558015841580
13540713 4 17487039322667238259
13947947 74 17917991672628761883
14117953 113 18342462547864487396
14931854 50 17847065462770265731
150020 25 17704351095890288832
15061470 23 18411135875852222100
15183329 4 18272653445623525736
15198563 99 17131844131329222208
15347590 135 13045940175600274733
155225 1 18187081733506578573
15706992 2 17458354022033921221
1577012 14 18334007298255149523
16728433 281 18127977412720185001
16994733 274 18114178606352475753
1754911 235 17847059982539851548
1818759 1 10592042470491440741
2026 5 13398364434011561244
20505436 4 18040427794008749587
21057603 130 13039187026468334935
21150785 3 15339122347153343908
21298829 104 18333733515685925717
21360443 89 9655569699910785709
21792961 116 17275110521875717642
23389318 12 14189574161553584776
23559900 14 17703783777496211587
23576562 1 17416950898468319277
249057 3 18272088335264884448
306946 40 17417798575084113080
3092352 35 17894627071644619411
3178227 256 14417854735104139996
335352 9 18131624587778697493
3633792 109 18341055125388120838
4073 2 18187367615193925923
4093350 32 17240756238353684754
4339292 15 9943521891526315489
4516262 110 17894901894381418463
4616759 239 13479138948620437029
504579 68 17775286062380356100
5104073 3 12541240119425459069
54039377 194 10303812090012619352
57303763 39 8141783003580853552
5937810 71 17774727451309892121
59682541 35 11746936499459261916
6081469 158 18131072624225369636
6201320 215 17969210162287585972
6201320 82 18118121373709897629
6673363 416 18273492374383480157
6698420 124 16950568826436968832
9953998 17 14707212124034276681
9962374 69 11023816271977420608

> <PUBCHEM_SHAPE_MULTIPOLES>
650.43
32.46
2.16
1.51
32.19
0.52
-0.49
-24.18
12.07
-4.1
0.48
1.12
-0.22
-0.59

> <PUBCHEM_SHAPE_SELFOVERLAP>
1414.404

> <PUBCHEM_SHAPE_VOLUME>
349.2

> <PUBCHEM_COORDINATE_TYPE>
2
5
10

$$$$
