26742618
  -OEChem-12032416183D

 57 59  0     1  0  0  0  0  0999 V2000
    5.3063    1.0814   -1.5458 O   0  0  0  0  0  0  0  0  0  0  0  0
   -2.5961    0.0809   -1.7657 O   0  0  0  0  0  0  0  0  0  0  0  0
    4.6754   -2.9531   -0.6113 O   0  0  0  0  0  0  0  0  0  0  0  0
   -8.2946   -0.5677    0.8240 O   0  0  0  0  0  0  0  0  0  0  0  0
    1.4052    3.0553    1.6107 N   0  0  0  0  0  0  0  0  0  0  0  0
    5.9272   -0.6047   -0.0791 N   0  0  0  0  0  0  0  0  0  0  0  0
   -1.2188    0.1517   -1.9358 N   0  0  0  0  0  0  0  0  0  0  0  0
    4.6067   -3.5803    1.5996 N   0  0  0  0  0  0  0  0  0  0  0  0
    2.7958    1.5290   -0.4973 C   0  0  1  0  0  0  0  0  0  0  0  0
    1.2922    1.3422   -0.1833 C   0  0  2  0  0  0  0  0  0  0  0  0
    3.2314    2.9339   -0.0484 C   0  0  0  0  0  0  0  0  0  0  0  0
    0.9682    1.6991    1.2772 C   0  0  0  0  0  0  0  0  0  0  0  0
    2.8404    3.2313    1.3986 C   0  0  0  0  0  0  0  0  0  0  0  0
    3.6999    0.4547    0.1188 C   0  0  0  0  0  0  0  0  0  0  0  0
    0.7792   -0.0585   -0.5204 C   0  0  0  0  0  0  0  0  0  0  0  0
   -0.7088   -0.0629   -0.7196 C   0  0  0  0  0  0  0  0  0  0  0  0
    5.0417    0.3520   -0.5864 C   0  0  0  0  0  0  0  0  0  0  0  0
   -1.7065   -0.2730    0.2480 C   0  0  0  0  0  0  0  0  0  0  0  0
   -2.8741   -0.1725   -0.4612 C   0  0  0  0  0  0  0  0  0  0  0  0
    5.5914   -1.4576    1.0587 C   0  0  0  0  0  0  0  0  0  0  0  0
    7.2517   -0.8229   -0.6476 C   0  0  0  0  0  0  0  0  0  0  0  0
   -4.2659   -0.2738   -0.1310 C   0  0  0  0  0  0  0  0  0  0  0  0
    4.9332   -2.7264    0.5678 C   0  0  0  0  0  0  0  0  0  0  0  0
   -4.6540   -0.5322    1.1837 C   0  0  0  0  0  0  0  0  0  0  0  0
   -5.2318   -0.1145   -1.1247 C   0  0  0  0  0  0  0  0  0  0  0  0
   -6.0078   -0.6314    1.5047 C   0  0  0  0  0  0  0  0  0  0  0  0
   -6.5855   -0.2137   -0.8039 C   0  0  0  0  0  0  0  0  0  0  0  0
   -6.9735   -0.4721    0.5108 C   0  0  0  0  0  0  0  0  0  0  0  0
   -9.2284   -0.3943   -0.2409 C   0  0  0  0  0  0  0  0  0  0  0  0
    2.8956    1.4827   -1.5905 H   0  0  0  0  0  0  0  0  0  0  0  0
    0.7565    2.0651   -0.8185 H   0  0  0  0  0  0  0  0  0  0  0  0
    2.7542    3.6757   -0.7032 H   0  0  0  0  0  0  0  0  0  0  0  0
    4.3114    3.0728   -0.1682 H   0  0  0  0  0  0  0  0  0  0  0  0
   -0.1111    1.6600    1.4500 H   0  0  0  0  0  0  0  0  0  0  0  0
    1.4269    0.9794    1.9665 H   0  0  0  0  0  0  0  0  0  0  0  0
    3.4082    2.6118    2.1012 H   0  0  0  0  0  0  0  0  0  0  0  0
    3.0987    4.2720    1.6251 H   0  0  0  0  0  0  0  0  0  0  0  0
    3.2331   -0.5297    0.0331 H   0  0  0  0  0  0  0  0  0  0  0  0
    3.8601    0.6651    1.1785 H   0  0  0  0  0  0  0  0  0  0  0  0
    1.0330   -0.7770    0.2687 H   0  0  0  0  0  0  0  0  0  0  0  0
    1.2509   -0.4213   -1.4431 H   0  0  0  0  0  0  0  0  0  0  0  0
    1.1819    3.2516    2.5859 H   0  0  0  0  0  0  0  0  0  0  0  0
   -1.5842   -0.4709    1.3029 H   0  0  0  0  0  0  0  0  0  0  0  0
    6.5115   -1.7141    1.5965 H   0  0  0  0  0  0  0  0  0  0  0  0
    4.9298   -0.9596    1.7694 H   0  0  0  0  0  0  0  0  0  0  0  0
    8.0048   -0.5899    0.1107 H   0  0  0  0  0  0  0  0  0  0  0  0
    7.4148   -0.1812   -1.5172 H   0  0  0  0  0  0  0  0  0  0  0  0
    7.3457   -1.8685   -0.9539 H   0  0  0  0  0  0  0  0  0  0  0  0
   -3.9249   -0.6609    1.9796 H   0  0  0  0  0  0  0  0  0  0  0  0
   -4.9683    0.0877   -2.1599 H   0  0  0  0  0  0  0  0  0  0  0  0
    4.8168   -3.3653    2.5691 H   0  0  0  0  0  0  0  0  0  0  0  0
    4.1451   -4.4655    1.4181 H   0  0  0  0  0  0  0  0  0  0  0  0
   -6.3044   -0.8326    2.5305 H   0  0  0  0  0  0  0  0  0  0  0  0
   -7.2828   -0.0793   -1.6238 H   0  0  0  0  0  0  0  0  0  0  0  0
  -10.2304   -0.5029    0.1871 H   0  0  0  0  0  0  0  0  0  0  0  0
   -9.1198   -1.1740   -1.0024 H   0  0  0  0  0  0  0  0  0  0  0  0
   -9.1704    0.6132   -0.6668 H   0  0  0  0  0  0  0  0  0  0  0  0
  1 17  2  0  0  0  0
  2  7  1  0  0  0  0
  2 19  1  0  0  0  0
  3 23  2  0  0  0  0
  4 28  1  0  0  0  0
  4 29  1  0  0  0  0
  5 12  1  0  0  0  0
  5 13  1  0  0  0  0
  5 42  1  0  0  0  0
  6 17  1  0  0  0  0
  6 20  1  0  0  0  0
  6 21  1  0  0  0  0
  7 16  2  0  0  0  0
  8 23  1  0  0  0  0
  8 51  1  0  0  0  0
  8 52  1  0  0  0  0
  9 10  1  0  0  0  0
  9 11  1  0  0  0  0
  9 14  1  0  0  0  0
  9 30  1  0  0  0  0
 10 12  1  0  0  0  0
 10 15  1  0  0  0  0
 10 31  1  0  0  0  0
 11 13  1  0  0  0  0
 11 32  1  0  0  0  0
 11 33  1  0  0  0  0
 12 34  1  0  0  0  0
 12 35  1  0  0  0  0
 13 36  1  0  0  0  0
 13 37  1  0  0  0  0
 14 17  1  0  0  0  0
 14 38  1  0  0  0  0
 14 39  1  0  0  0  0
 15 16  1  0  0  0  0
 15 40  1  0  0  0  0
 15 41  1  0  0  0  0
 16 18  1  0  0  0  0
 18 19  2  0  0  0  0
 18 43  1  0  0  0  0
 19 22  1  0  0  0  0
 20 23  1  0  0  0  0
 20 44  1  0  0  0  0
 20 45  1  0  0  0  0
 21 46  1  0  0  0  0
 21 47  1  0  0  0  0
 21 48  1  0  0  0  0
 22 24  2  0  0  0  0
 22 25  1  0  0  0  0
 24 26  1  0  0  0  0
 24 49  1  0  0  0  0
 25 27  2  0  0  0  0
 25 50  1  0  0  0  0
 26 28  2  0  0  0  0
 26 53  1  0  0  0  0
 27 28  1  0  0  0  0
 27 54  1  0  0  0  0
 29 55  1  0  0  0  0
 29 56  1  0  0  0  0
 29 57  1  0  0  0  0
M  END
> <PUBCHEM_COMPOUND_CID>
26742618

> <PUBCHEM_CONFORMER_RMSD>
1

> <PUBCHEM_CONFORMER_DIVERSEORDER>
2
164
6
61
55
23
120
32
11
129
105
178
64
47
143
7
30
141
15
171
118
157
96
70
81
110
73
53
59
173
67
58
155
112
88
136
71
101
98
102
5
56
9
137
121
49
18
165
93
131
140
8
41
80
109
46
66
148
29
174
25
162
90
124
10
117
147
40
100
166
169
16
175
138
65
31
123
152
106
177
161
57
60
168
158
142
91
35
44
134
116
126
128
87
78
176
83
45
149
133
82
1
50
3
72
154
119
135
62
114
86
84
95
130
167
146
94
159
21
125
75
107
69
127
160
74
115
113
14
156
79
97
172
89
20
145
108
139
104
151
38
52
144
37
4
39
17
51
132
103
76
34
63
27
43
68
19
111
13
36
28
170
150
163
24
48
122
54
85
12
153
92
33
77
42
99
26
22

> <PUBCHEM_MMFF94_PARTIAL_CHARGES>
34
1 -0.57
12 0.27
13 0.27
14 0.06
15 0.18
16 0.11
17 0.57
18 -0.15
19 0.09
2 -0.02
20 0.36
21 0.3
22 0.05
23 0.57
24 -0.15
25 -0.15
26 -0.15
27 -0.15
28 0.08
29 0.28
3 -0.57
4 -0.36
42 0.36
43 0.15
49 0.15
5 -0.9
50 0.15
51 0.37
52 0.37
53 0.15
54 0.15
6 -0.66
7 -0.41
8 -0.8

> <PUBCHEM_EFFECTIVE_ROTOR_COUNT>
10.2

> <PUBCHEM_PHARMACOPHORE_FEATURES>
10
1 1 acceptor
1 3 acceptor
1 4 acceptor
1 5 cation
1 5 donor
1 7 acceptor
1 8 donor
5 2 7 16 18 19 rings
6 22 24 25 26 27 28 rings
6 5 9 10 11 12 13 rings

> <PUBCHEM_HEAVY_ATOM_COUNT>
29

> <PUBCHEM_ATOM_DEF_STEREO_COUNT>
2

> <PUBCHEM_ATOM_UDEF_STEREO_COUNT>
0

> <PUBCHEM_BOND_DEF_STEREO_COUNT>
0

> <PUBCHEM_BOND_UDEF_STEREO_COUNT>
0

> <PUBCHEM_ISOTOPIC_ATOM_COUNT>
0

> <PUBCHEM_COMPONENT_COUNT>
1

> <PUBCHEM_CACTVS_TAUTO_COUNT>
2

> <PUBCHEM_CONFORMER_ID>
01980F5A00000002

> <PUBCHEM_MMFF94_ENERGY>
68.7172

> <PUBCHEM_FEATURE_SELFOVERLAP>
50.747

> <PUBCHEM_SHAPE_FINGERPRINT>
10162869 55 17489580183092091149
10673678 19 17460335449936447916
11409948 35 18114738227864660675
11456790 92 18059868268405965553
117089 54 18120376454466970946
12522641 24 18409445899596852747
12592606 108 18131353024621506183
12616971 3 17489304235269233461
13150687 139 11746938643138657616
13533116 47 18409448093897853322
13617811 41 15213021535601074063
13673619 4 18187364307451292852
13782708 43 18259980466471086071
15131766 46 17768522039173484557
15183329 4 17560529490293726101
15301273 46 17530963592932039845
15352257 5 17968098642136614547
1577012 14 17203046413090112365
16728300 4 18198054772887461647
17492 89 18051693240545616910
19301679 30 17986678073906400854
21150785 3 8286200540136840535
21344244 78 17917706860151277946
21716022 299 16155654750511597272
21859007 373 14548466778040512529
22033318 11 17915483639282479153
23559900 14 17894910746102981813
3004659 81 17203056282376481632
33382 64 18186522081892315786
3411729 13 16557608920036696272
345986 75 18059007286028838416
34797466 226 16732704981895120956
3729539 64 18261390014133422419
394071 54 18059278951495306976
4073 2 18122904493110847290
4093350 32 17604154851708976164
4325135 7 10737281359513647849
439807 62 17168141213754071442
46194498 28 17385443228985402372
58260988 647 18114464453130952090
6081469 158 18334011693109103541

> <PUBCHEM_SHAPE_MULTIPOLES>
553.41
23.05
2.91
1.5
33.57
0.17
-0.06
-11.37
-0.99
-7.97
-1.63
0.14
0.12
-0.25

> <PUBCHEM_SHAPE_SELFOVERLAP>
1162.378

> <PUBCHEM_SHAPE_VOLUME>
310.9

> <PUBCHEM_COORDINATE_TYPE>
2
5
10

$$$$
