11886501
  -OEChem-12032416413D

 54 57  0     1  0  0  0  0  0999 V2000
    2.2760   -2.9670    0.0837 S   0  0  0  0  0  0  0  0  0  0  0  0
   -2.0487   -1.1534   -0.6701 O   0  0  0  0  0  0  0  0  0  0  0  0
   -0.0526    1.1791   -0.8610 O   0  0  0  0  0  0  0  0  0  0  0  0
   -3.5644    1.1118   -0.1561 O   0  0  0  0  0  0  0  0  0  0  0  0
    2.4550   -3.4790   -1.2616 O   0  0  0  0  0  0  0  0  0  0  0  0
    2.4945   -3.8306    1.2282 O   0  0  0  0  0  0  0  0  0  0  0  0
    6.1442    2.5137   -1.4540 O   0  0  0  0  0  0  0  0  0  0  0  0
    0.7391   -2.2584    0.2192 N   0  0  0  0  0  0  0  0  0  0  0  0
    5.8486    1.7207    0.7464 N   0  0  0  0  0  0  0  0  0  0  0  0
   -0.1082    0.0307    0.0107 C   0  0  1  0  0  0  0  0  0  0  0  0
   -1.5720   -0.2208    0.3141 C   0  0  1  0  0  0  0  0  0  0  0  0
    0.3263   -1.2047   -0.7381 C   0  0  2  0  0  0  0  0  0  0  0  0
   -2.1849    1.1469    0.1316 C   0  0  1  0  0  0  0  0  0  0  0  0
   -0.9424   -1.6293   -1.4519 C   0  0  0  0  0  0  0  0  0  0  0  0
   -1.3779    1.7065   -1.0179 C   0  0  0  0  0  0  0  0  0  0  0  0
   -4.3225    0.5838    0.9296 C   0  0  0  0  0  0  0  0  0  0  0  0
    3.3409   -1.5700    0.2814 C   0  0  0  0  0  0  0  0  0  0  0  0
   -5.7753    0.5762    0.5547 C   0  0  0  0  0  0  0  0  0  0  0  0
    3.7277   -0.8517   -0.8368 C   0  0  0  0  0  0  0  0  0  0  0  0
    3.7681   -1.2202    1.5507 C   0  0  0  0  0  0  0  0  0  0  0  0
   -6.5649    1.6853    0.8372 C   0  0  0  0  0  0  0  0  0  0  0  0
   -6.3188   -0.5394   -0.0723 C   0  0  0  0  0  0  0  0  0  0  0  0
    4.5681    0.2507   -0.6808 C   0  0  0  0  0  0  0  0  0  0  0  0
    4.6083   -0.1177    1.7065 C   0  0  0  0  0  0  0  0  0  0  0  0
    5.0082    0.6177    0.5907 C   0  0  0  0  0  0  0  0  0  0  0  0
   -7.9155    1.6785    0.4886 C   0  0  0  0  0  0  0  0  0  0  0  0
   -7.6695   -0.5461   -0.4210 C   0  0  0  0  0  0  0  0  0  0  0  0
   -8.4677    0.5629   -0.1406 C   0  0  0  0  0  0  0  0  0  0  0  0
    6.3509    2.5724   -0.2463 C   0  0  0  0  0  0  0  0  0  0  0  0
    7.2294    3.6516    0.3352 C   0  0  0  0  0  0  0  0  0  0  0  0
    0.4871    0.2601    0.9001 H   0  0  0  0  0  0  0  0  0  0  0  0
   -1.7371   -0.6602    1.3022 H   0  0  0  0  0  0  0  0  0  0  0  0
    1.1015   -1.0138   -1.4815 H   0  0  0  0  0  0  0  0  0  0  0  0
   -1.9976    1.7619    1.0223 H   0  0  0  0  0  0  0  0  0  0  0  0
   -1.0162   -1.1540   -2.4361 H   0  0  0  0  0  0  0  0  0  0  0  0
   -1.0336   -2.7117   -1.5851 H   0  0  0  0  0  0  0  0  0  0  0  0
   -1.3416    2.7999   -1.0073 H   0  0  0  0  0  0  0  0  0  0  0  0
   -1.7702    1.3954   -1.9927 H   0  0  0  0  0  0  0  0  0  0  0  0
    0.1903   -2.3620    1.0810 H   0  0  0  0  0  0  0  0  0  0  0  0
   -4.0119   -0.4389    1.1718 H   0  0  0  0  0  0  0  0  0  0  0  0
   -4.1667    1.1965    1.8265 H   0  0  0  0  0  0  0  0  0  0  0  0
    3.4038   -1.1250   -1.8362 H   0  0  0  0  0  0  0  0  0  0  0  0
    3.4616   -1.7743    2.4324 H   0  0  0  0  0  0  0  0  0  0  0  0
   -6.1446    2.5605    1.3249 H   0  0  0  0  0  0  0  0  0  0  0  0
   -5.7056   -1.4075   -0.2978 H   0  0  0  0  0  0  0  0  0  0  0  0
    4.8362    0.7689   -1.5908 H   0  0  0  0  0  0  0  0  0  0  0  0
    4.9422    0.1584    2.7035 H   0  0  0  0  0  0  0  0  0  0  0  0
   -8.5370    2.5422    0.7062 H   0  0  0  0  0  0  0  0  0  0  0  0
   -8.0995   -1.4144   -0.9116 H   0  0  0  0  0  0  0  0  0  0  0  0
   -9.5192    0.5577   -0.4125 H   0  0  0  0  0  0  0  0  0  0  0  0
    6.1258    1.9235    1.7047 H   0  0  0  0  0  0  0  0  0  0  0  0
    8.0651    3.1987    0.8761 H   0  0  0  0  0  0  0  0  0  0  0  0
    7.6258    4.2795   -0.4675 H   0  0  0  0  0  0  0  0  0  0  0  0
    6.6457    4.2744    1.0188 H   0  0  0  0  0  0  0  0  0  0  0  0
  1  5  2  0  0  0  0
  1  6  2  0  0  0  0
  1  8  1  0  0  0  0
  1 17  1  0  0  0  0
  2 11  1  0  0  0  0
  2 14  1  0  0  0  0
  3 10  1  0  0  0  0
  3 15  1  0  0  0  0
  4 13  1  0  0  0  0
  4 16  1  0  0  0  0
  7 29  2  0  0  0  0
  8 12  1  0  0  0  0
  8 39  1  0  0  0  0
  9 25  1  0  0  0  0
  9 29  1  0  0  0  0
  9 51  1  0  0  0  0
 10 11  1  0  0  0  0
 10 12  1  0  0  0  0
 10 31  1  0  0  0  0
 11 13  1  0  0  0  0
 11 32  1  0  0  0  0
 12 14  1  0  0  0  0
 12 33  1  0  0  0  0
 13 15  1  0  0  0  0
 13 34  1  0  0  0  0
 14 35  1  0  0  0  0
 14 36  1  0  0  0  0
 15 37  1  0  0  0  0
 15 38  1  0  0  0  0
 16 18  1  0  0  0  0
 16 40  1  0  0  0  0
 16 41  1  0  0  0  0
 17 19  2  0  0  0  0
 17 20  1  0  0  0  0
 18 21  2  0  0  0  0
 18 22  1  0  0  0  0
 19 23  1  0  0  0  0
 19 42  1  0  0  0  0
 20 24  2  0  0  0  0
 20 43  1  0  0  0  0
 21 26  1  0  0  0  0
 21 44  1  0  0  0  0
 22 27  2  0  0  0  0
 22 45  1  0  0  0  0
 23 25  2  0  0  0  0
 23 46  1  0  0  0  0
 24 25  1  0  0  0  0
 24 47  1  0  0  0  0
 26 28  2  0  0  0  0
 26 48  1  0  0  0  0
 27 28  1  0  0  0  0
 27 49  1  0  0  0  0
 28 50  1  0  0  0  0
 29 30  1  0  0  0  0
 30 52  1  0  0  0  0
 30 53  1  0  0  0  0
 30 54  1  0  0  0  0
M  END
> <PUBCHEM_COMPOUND_CID>
11886501

> <PUBCHEM_CONFORMER_RMSD>
1

> <PUBCHEM_CONFORMER_DIVERSEORDER>
1
40
69
41
27
55
48
63
58
13
59
5
36
71
53
65
18
31
54
23
42
3
22
37
60
61
57
33
32
14
47
67
29
9
16
4
44
66
43
20
46
50
64
2
49
70
7
12
17
25
15
51
62
24
56
11
45
35
6
10
38
26
21
30
34
19
8
68
28
39
52

> <PUBCHEM_MMFF94_PARTIAL_CHARGES>
41
1 1.45
10 0.28
11 0.28
12 0.36
13 0.28
14 0.28
15 0.28
16 0.42
17 -0.01
18 -0.14
19 -0.15
2 -0.56
20 -0.15
21 -0.15
22 -0.15
23 -0.15
24 -0.15
25 0.12
26 -0.15
27 -0.15
28 -0.15
29 0.57
3 -0.56
30 0.06
39 0.42
4 -0.56
42 0.15
43 0.15
44 0.15
45 0.15
46 0.15
47 0.15
48 0.15
49 0.15
5 -0.65
50 0.15
51 0.37
6 -0.65
7 -0.57
8 -0.91
9 -0.55

> <PUBCHEM_EFFECTIVE_ROTOR_COUNT>
9.2

> <PUBCHEM_PHARMACOPHORE_FEATURES>
12
1 2 acceptor
1 3 acceptor
1 4 acceptor
1 5 acceptor
1 6 acceptor
1 7 acceptor
1 8 donor
1 9 donor
5 2 10 11 12 14 rings
5 3 10 11 13 15 rings
6 17 19 20 23 24 25 rings
6 18 21 22 26 27 28 rings

> <PUBCHEM_HEAVY_ATOM_COUNT>
30

> <PUBCHEM_ATOM_DEF_STEREO_COUNT>
4

> <PUBCHEM_ATOM_UDEF_STEREO_COUNT>
0

> <PUBCHEM_BOND_DEF_STEREO_COUNT>
0

> <PUBCHEM_BOND_UDEF_STEREO_COUNT>
0

> <PUBCHEM_ISOTOPIC_ATOM_COUNT>
0

> <PUBCHEM_COMPONENT_COUNT>
1

> <PUBCHEM_CACTVS_TAUTO_COUNT>
2

> <PUBCHEM_CONFORMER_ID>
00B55FA500000001

> <PUBCHEM_MMFF94_ENERGY>
76.5335

> <PUBCHEM_FEATURE_SELFOVERLAP>
61.634

> <PUBCHEM_SHAPE_FINGERPRINT>
10165383 225 18413669119912598168
10794284 68 17915175952336658135
10838868 160 18199738293015480616
10904742 90 18341049709645181800
10906281 52 18336265733888428047
10939801 23 18341893013689297231
11135609 201 18338791321288484520
11273773 46 11095892587367218909
11991303 11 14692275271450957237
12373685 5 14852464283951917467
12516196 113 18336828594480368721
13533116 47 17823983337959686755
13782708 43 14202553883619546209
14114211 68 18342466945862979626
14537116 161 16845289423513694761
1454969 45 18341891901076022029
14565420 104 18334292072357418698
14675020 138 15502374512966197809
14849402 71 18343023320232936689
15419008 91 17822282432959276717
15685185 35 18195527223721462044
15840311 113 18410297995111936525
16992610 120 18116164436786592420
19841028 212 9583525309082653044
21130935 74 18264212418640078243
21365058 113 17626401017397862254
21781051 124 13039181537511161661
21814621 53 15793112828223312375
21987483 16 18040154020335428419
23522609 53 17488762073089147289
23559900 14 17605297097955450018
24771293 8 18335140912318985757
3004659 81 10881694480881354139
3246875 12 18338236075830957586
3411729 13 18412266116456666358
34797466 226 17988649553841242525
394071 54 18334305257305844753
3986486 107 16988020366033742288
4073 2 18335425681994529067
4169191 19 18411418410926219013
4340502 62 17894631422573142531
437795 163 18341608274706441599
444735 82 18337112272396234605
49967989 163 16198995454753870781
5104073 3 18122056499479572163
57307002 182 18260816082528776610
6438161 24 9583521997256334892
7808743 9 18267298919482413184
8988823 20 15936418822695621406
9831232 110 17486217712825357791
9849439 229 18342169016893055656
9962374 69 18269264664909584047

> <PUBCHEM_SHAPE_MULTIPOLES>
576.06
22.65
3.59
1.25
28.52
0.96
0.07
-18.5
2.76
-7.76
-0.12
-1.13
0.24
-1.36

> <PUBCHEM_SHAPE_SELFOVERLAP>
1224.348

> <PUBCHEM_SHAPE_VOLUME>
321.9

> <PUBCHEM_COORDINATE_TYPE>
2
5
10

$$$$
