38029159
  -OEChem-12032416243D

 68 69  0     1  0  0  0  0  0999 V2000
   -1.9807    2.5270    0.7460 O   0  0  0  0  0  0  0  0  0  0  0  0
    3.2067   -2.2811   -1.5819 O   0  0  0  0  0  0  0  0  0  0  0  0
    3.6181   -0.7399    0.1080 N   0  0  0  0  0  0  0  0  0  0  0  0
   -2.4287    0.4898    1.7602 N   0  0  0  0  0  0  0  0  0  0  0  0
    2.7817   -2.8315    0.6318 N   0  0  0  0  0  0  0  0  0  0  0  0
   -5.4579   -1.9459   -0.7042 N   0  0  0  0  0  0  0  0  0  0  0  0
    1.7907    1.3174   -1.1051 C   0  0  1  0  0  0  0  0  0  0  0  0
    3.2201    1.5706   -0.5642 C   0  0  1  0  0  0  0  0  0  0  0  0
    0.8202    2.3842   -0.5757 C   0  0  0  0  0  0  0  0  0  0  0  0
    0.7627    2.4072    0.9634 C   0  0  2  0  0  0  0  0  0  0  0  0
    1.7568    1.2996   -2.6365 C   0  0  0  0  0  0  0  0  0  0  0  0
    2.1472    2.3866    1.5789 C   0  0  0  0  0  0  0  0  0  0  0  0
    3.2352    2.0228    0.8772 C   0  0  0  0  0  0  0  0  0  0  0  0
    4.0984    0.3235   -0.7174 C   0  0  0  0  0  0  0  0  0  0  0  0
   -0.0941    1.2558    1.5014 C   0  0  0  0  0  0  0  0  0  0  0  0
    0.5633    0.4899   -3.1331 C   0  0  0  0  0  0  0  0  0  0  0  0
    1.7108    2.7225   -3.1841 C   0  0  0  0  0  0  0  0  0  0  0  0
    2.2593    2.8380    3.0086 C   0  0  0  0  0  0  0  0  0  0  0  0
   -1.5778    1.4976    1.2941 C   0  0  0  0  0  0  0  0  0  0  0  0
    3.2011   -1.9816   -0.3886 C   0  0  0  0  0  0  0  0  0  0  0  0
   -3.8821    0.5721    1.6359 C   0  0  0  0  0  0  0  0  0  0  0  0
   -1.9292   -0.7186    2.4049 C   0  0  0  0  0  0  0  0  0  0  0  0
    2.3030   -4.1715    0.3867 C   0  0  0  0  0  0  0  0  0  0  0  0
   -4.3754   -0.0712    0.3722 C   0  0  0  0  0  0  0  0  0  0  0  0
    0.8027   -4.1581    0.1244 C   0  0  0  0  0  0  0  0  0  0  0  0
    2.6510   -5.0856    1.5550 C   0  0  0  0  0  0  0  0  0  0  0  0
   -4.2252    0.5582   -0.8586 C   0  0  0  0  0  0  0  0  0  0  0  0
   -4.9931   -1.3112    0.3953 C   0  0  0  0  0  0  0  0  0  0  0  0
   -4.6906   -0.0631   -2.0122 C   0  0  0  0  0  0  0  0  0  0  0  0
   -5.2940   -1.3035   -1.8824 C   0  0  0  0  0  0  0  0  0  0  0  0
    1.4476    0.3398   -0.7472 H   0  0  0  0  0  0  0  0  0  0  0  0
    3.6934    2.3747   -1.1415 H   0  0  0  0  0  0  0  0  0  0  0  0
   -0.1816    2.2448   -0.9932 H   0  0  0  0  0  0  0  0  0  0  0  0
    1.1481    3.3884   -0.8742 H   0  0  0  0  0  0  0  0  0  0  0  0
    0.2992    3.3627    1.2467 H   0  0  0  0  0  0  0  0  0  0  0  0
    2.6541    0.8133   -3.0327 H   0  0  0  0  0  0  0  0  0  0  0  0
    4.2108    2.0721    1.3571 H   0  0  0  0  0  0  0  0  0  0  0  0
    5.1216    0.5392   -0.3865 H   0  0  0  0  0  0  0  0  0  0  0  0
    4.1699   -0.0015   -1.7587 H   0  0  0  0  0  0  0  0  0  0  0  0
    0.0582    1.1625    2.5825 H   0  0  0  0  0  0  0  0  0  0  0  0
    0.1889    0.3100    1.0290 H   0  0  0  0  0  0  0  0  0  0  0  0
   -0.3924    0.9198   -2.8174 H   0  0  0  0  0  0  0  0  0  0  0  0
    0.6093   -0.5409   -2.7653 H   0  0  0  0  0  0  0  0  0  0  0  0
    0.5589    0.4477   -4.2279 H   0  0  0  0  0  0  0  0  0  0  0  0
    0.7386    3.2066   -3.0435 H   0  0  0  0  0  0  0  0  0  0  0  0
    1.8755    2.6957   -4.2684 H   0  0  0  0  0  0  0  0  0  0  0  0
    2.4960    3.3612   -2.7688 H   0  0  0  0  0  0  0  0  0  0  0  0
    1.8191    3.8333    3.1288 H   0  0  0  0  0  0  0  0  0  0  0  0
    3.3020    2.9006    3.3386 H   0  0  0  0  0  0  0  0  0  0  0  0
    1.7453    2.1459    3.6815 H   0  0  0  0  0  0  0  0  0  0  0  0
    3.6400   -0.6189    1.1161 H   0  0  0  0  0  0  0  0  0  0  0  0
   -4.1786    1.6284    1.6293 H   0  0  0  0  0  0  0  0  0  0  0  0
   -4.3487    0.1280    2.5233 H   0  0  0  0  0  0  0  0  0  0  0  0
   -2.3975   -0.8046    3.3908 H   0  0  0  0  0  0  0  0  0  0  0  0
   -0.8511   -0.7566    2.5480 H   0  0  0  0  0  0  0  0  0  0  0  0
   -2.2179   -1.5823    1.7983 H   0  0  0  0  0  0  0  0  0  0  0  0
    2.7402   -2.4651    1.5782 H   0  0  0  0  0  0  0  0  0  0  0  0
    2.8045   -4.5540   -0.5105 H   0  0  0  0  0  0  0  0  0  0  0  0
    0.2527   -3.7619    0.9855 H   0  0  0  0  0  0  0  0  0  0  0  0
    0.5607   -3.5265   -0.7375 H   0  0  0  0  0  0  0  0  0  0  0  0
    0.4319   -5.1674   -0.0826 H   0  0  0  0  0  0  0  0  0  0  0  0
    2.1778   -4.7440    2.4824 H   0  0  0  0  0  0  0  0  0  0  0  0
    3.7332   -5.1031    1.7245 H   0  0  0  0  0  0  0  0  0  0  0  0
    2.3214   -6.1117    1.3615 H   0  0  0  0  0  0  0  0  0  0  0  0
   -3.7569    1.5342   -0.9371 H   0  0  0  0  0  0  0  0  0  0  0  0
   -5.1378   -1.8535    1.3246 H   0  0  0  0  0  0  0  0  0  0  0  0
   -4.5858    0.4095   -2.9821 H   0  0  0  0  0  0  0  0  0  0  0  0
   -5.6742   -1.8298   -2.7519 H   0  0  0  0  0  0  0  0  0  0  0  0
  1 19  2  0  0  0  0
  2 20  2  0  0  0  0
  3 14  1  0  0  0  0
  3 20  1  0  0  0  0
  3 51  1  0  0  0  0
  4 19  1  0  0  0  0
  4 21  1  0  0  0  0
  4 22  1  0  0  0  0
  5 20  1  0  0  0  0
  5 23  1  0  0  0  0
  5 57  1  0  0  0  0
  6 28  1  0  0  0  0
  6 30  2  0  0  0  0
  7  8  1  0  0  0  0
  7  9  1  0  0  0  0
  7 11  1  0  0  0  0
  7 31  1  0  0  0  0
  8 13  1  0  0  0  0
  8 14  1  0  0  0  0
  8 32  1  0  0  0  0
  9 10  1  0  0  0  0
  9 33  1  0  0  0  0
  9 34  1  0  0  0  0
 10 12  1  0  0  0  0
 10 15  1  0  0  0  0
 10 35  1  0  0  0  0
 11 16  1  0  0  0  0
 11 17  1  0  0  0  0
 11 36  1  0  0  0  0
 12 13  2  0  0  0  0
 12 18  1  0  0  0  0
 13 37  1  0  0  0  0
 14 38  1  0  0  0  0
 14 39  1  0  0  0  0
 15 19  1  0  0  0  0
 15 40  1  0  0  0  0
 15 41  1  0  0  0  0
 16 42  1  0  0  0  0
 16 43  1  0  0  0  0
 16 44  1  0  0  0  0
 17 45  1  0  0  0  0
 17 46  1  0  0  0  0
 17 47  1  0  0  0  0
 18 48  1  0  0  0  0
 18 49  1  0  0  0  0
 18 50  1  0  0  0  0
 21 24  1  0  0  0  0
 21 52  1  0  0  0  0
 21 53  1  0  0  0  0
 22 54  1  0  0  0  0
 22 55  1  0  0  0  0
 22 56  1  0  0  0  0
 23 25  1  0  0  0  0
 23 26  1  0  0  0  0
 23 58  1  0  0  0  0
 24 27  1  0  0  0  0
 24 28  2  0  0  0  0
 25 59  1  0  0  0  0
 25 60  1  0  0  0  0
 25 61  1  0  0  0  0
 26 62  1  0  0  0  0
 26 63  1  0  0  0  0
 26 64  1  0  0  0  0
 27 29  2  0  0  0  0
 27 65  1  0  0  0  0
 28 66  1  0  0  0  0
 29 30  1  0  0  0  0
 29 67  1  0  0  0  0
 30 68  1  0  0  0  0
M  END
> <PUBCHEM_COMPOUND_CID>
38029159

> <PUBCHEM_CONFORMER_RMSD>
1.2

> <PUBCHEM_CONFORMER_DIVERSEORDER>
1
124
26
60
102
114
35
64
76
68
142
137
62
65
39
4
11
136
61
34
106
134
22
120
140
147
14
105
133
53
103
101
44
109
37
122
127
145
75
36
152
117
126
25
83
3
20
125
123
135
71
153
113
30
56
150
9
70
116
48
58
91
28
107
27
151
128
87
72
130
131
138
144
38
119
32
57
21
29
63
43
132
111
84
97
7
33
94
148
100
55
121
47
74
12
81
24
54
92
86
79
146
99
90
31
8
129
93
95
85
5
42
45
96
80
108
143
23
110
10
2
13
49
88
149
118
69
115
46
15
52
98
66
139
154
19
16
112
18
89
50
73
141
104
40
77
51
82
59
78
67
17
6
41

> <PUBCHEM_MMFF94_PARTIAL_CHARGES>
30
1 -0.57
10 0.14
12 -0.28
13 -0.29
14 0.3
15 0.06
18 0.14
19 0.57
2 -0.57
20 0.69
21 0.44
22 0.3
23 0.3
24 -0.14
27 -0.15
28 0.16
29 -0.15
3 -0.73
30 0.16
37 0.15
4 -0.66
5 -0.73
51 0.37
57 0.37
6 -0.62
65 0.15
66 0.15
67 0.15
68 0.15
8 0.14

> <PUBCHEM_EFFECTIVE_ROTOR_COUNT>
11.8

> <PUBCHEM_PHARMACOPHORE_FEATURES>
9
1 1 acceptor
1 2 acceptor
1 3 donor
1 5 donor
1 6 acceptor
3 11 16 17 hydrophobe
3 23 25 26 hydrophobe
6 6 24 27 28 29 30 rings
6 7 8 9 10 12 13 rings

> <PUBCHEM_HEAVY_ATOM_COUNT>
30

> <PUBCHEM_ATOM_DEF_STEREO_COUNT>
3

> <PUBCHEM_ATOM_UDEF_STEREO_COUNT>
0

> <PUBCHEM_BOND_DEF_STEREO_COUNT>
0

> <PUBCHEM_BOND_UDEF_STEREO_COUNT>
0

> <PUBCHEM_ISOTOPIC_ATOM_COUNT>
0

> <PUBCHEM_COMPONENT_COUNT>
1

> <PUBCHEM_CACTVS_TAUTO_COUNT>
3

> <PUBCHEM_CONFORMER_ID>
0244476700000001

> <PUBCHEM_MMFF94_ENERGY>
61.991

> <PUBCHEM_FEATURE_SELFOVERLAP>
45.719

> <PUBCHEM_SHAPE_FINGERPRINT>
11069576 57 18409736123285275918
11513181 2 17984153556280450326
12156800 1 16303978795435294482
14251757 17 17241055301332124403
14674994 50 17109311599016939438
17138139 8 17916302921141548710
19315092 285 18130490990404373835
20764821 26 18124036994736475491
20775530 9 17830187813656151002
25222932 49 17628908217230248759
25265897 201 16443645561597819339
35225 105 17545347600787491278
46194498 28 16879940627004751605
463206 1 18343033180802114771
5081480 168 17387136369233183565
66674814 147 18260553290343454522
6669772 16 17913475015868281801

> <PUBCHEM_SHAPE_MULTIPOLES>
585.72
10.01
5.29
3.11
15.51
8.36
-1.09
3.74
-2.45
-6.93
1.76
-0.32
-2.2
-0.88

> <PUBCHEM_SHAPE_SELFOVERLAP>
1188.428

> <PUBCHEM_SHAPE_VOLUME>
339.7

> <PUBCHEM_COORDINATE_TYPE>
2
5
10

$$$$
