40587810
  -OEChem-12032416113D

 56 60  0     1  0  0  0  0  0999 V2000
    1.6402    2.9247   -2.2132 O   0  0  0  0  0  0  0  0  0  0  0  0
    1.2059   -1.9355    0.8712 O   0  0  0  0  0  0  0  0  0  0  0  0
   -6.3071   -2.0598    0.2430 O   0  0  0  0  0  0  0  0  0  0  0  0
    0.2643    2.1400   -0.4875 N   0  0  0  0  0  0  0  0  0  0  0  0
    0.9928    0.1345    1.8823 N   0  0  0  0  0  0  0  0  0  0  0  0
    3.1234   -0.7119    1.3262 N   0  0  0  0  0  0  0  0  0  0  0  0
    0.7906    2.6260    1.9716 C   0  0  2  0  0  0  0  0  0  0  0  0
   -1.1692    1.2678    1.3852 C   0  0  2  0  0  0  0  0  0  0  0  0
   -0.7092    2.4906    2.1757 C   0  0  0  0  0  0  0  0  0  0  0  0
    1.0511    2.9030    0.4902 C   0  0  0  0  0  0  0  0  0  0  0  0
    1.5407    1.3713    2.4590 C   0  0  0  0  0  0  0  0  0  0  0  0
   -0.4674    0.0176    1.9478 C   0  0  0  0  0  0  0  0  0  0  0  0
   -0.8814    1.4108   -0.1120 C   0  0  0  0  0  0  0  0  0  0  0  0
   -1.6641    0.8430   -1.0664 C   0  0  0  0  0  0  0  0  0  0  0  0
    0.6597    2.2865   -1.8291 C   0  0  0  0  0  0  0  0  0  0  0  0
    1.7444   -0.9179    1.3146 C   0  0  0  0  0  0  0  0  0  0  0  0
   -1.2850    0.9690   -2.4609 C   0  0  0  0  0  0  0  0  0  0  0  0
   -0.1923    1.6284   -2.8450 C   0  0  0  0  0  0  0  0  0  0  0  0
   -2.8840    0.0803   -0.7222 C   0  0  0  0  0  0  0  0  0  0  0  0
   -2.8028   -1.2898   -0.4729 C   0  0  0  0  0  0  0  0  0  0  0  0
   -4.1154    0.7311   -0.6468 C   0  0  0  0  0  0  0  0  0  0  0  0
    4.0707   -1.2013    0.3932 C   0  0  0  0  0  0  0  0  0  0  0  0
   -3.9530   -2.0090   -0.1483 C   0  0  0  0  0  0  0  0  0  0  0  0
   -5.2655    0.0121   -0.3222 C   0  0  0  0  0  0  0  0  0  0  0  0
   -5.1844   -1.3580   -0.0729 C   0  0  0  0  0  0  0  0  0  0  0  0
    5.4314   -0.9705    0.5947 C   0  0  0  0  0  0  0  0  0  0  0  0
    3.6426   -1.9138   -0.7269 C   0  0  0  0  0  0  0  0  0  0  0  0
    6.3642   -1.4520   -0.3239 C   0  0  0  0  0  0  0  0  0  0  0  0
    4.5751   -2.3954   -1.6454 C   0  0  0  0  0  0  0  0  0  0  0  0
    5.9360   -2.1644   -1.4440 C   0  0  0  0  0  0  0  0  0  0  0  0
   -6.1522   -3.4575    0.4846 C   0  0  0  0  0  0  0  0  0  0  0  0
    1.1644    3.4791    2.5514 H   0  0  0  0  0  0  0  0  0  0  0  0
   -2.2457    1.1654    1.5621 H   0  0  0  0  0  0  0  0  0  0  0  0
   -1.2318    3.3930    1.8345 H   0  0  0  0  0  0  0  0  0  0  0  0
   -0.9406    2.3695    3.2410 H   0  0  0  0  0  0  0  0  0  0  0  0
    0.8277    3.9597    0.2871 H   0  0  0  0  0  0  0  0  0  0  0  0
    2.1167    2.7740    0.2611 H   0  0  0  0  0  0  0  0  0  0  0  0
    2.6034    1.4940    2.2431 H   0  0  0  0  0  0  0  0  0  0  0  0
    1.4389    1.2781    3.5470 H   0  0  0  0  0  0  0  0  0  0  0  0
   -0.7250   -0.1097    3.0070 H   0  0  0  0  0  0  0  0  0  0  0  0
   -0.8041   -0.8875    1.4381 H   0  0  0  0  0  0  0  0  0  0  0  0
   -1.9136    0.4952   -3.2092 H   0  0  0  0  0  0  0  0  0  0  0  0
    0.0861    1.7126   -3.8887 H   0  0  0  0  0  0  0  0  0  0  0  0
    3.5173   -0.1619    2.0826 H   0  0  0  0  0  0  0  0  0  0  0  0
   -1.8520   -1.8134   -0.5375 H   0  0  0  0  0  0  0  0  0  0  0  0
   -4.1946    1.7986   -0.8377 H   0  0  0  0  0  0  0  0  0  0  0  0
   -3.8187   -3.0702    0.0310 H   0  0  0  0  0  0  0  0  0  0  0  0
   -6.2219    0.5245   -0.2648 H   0  0  0  0  0  0  0  0  0  0  0  0
    5.7783   -0.4166    1.4633 H   0  0  0  0  0  0  0  0  0  0  0  0
    2.5979   -2.0957   -0.9501 H   0  0  0  0  0  0  0  0  0  0  0  0
    7.4237   -1.2718   -0.1674 H   0  0  0  0  0  0  0  0  0  0  0  0
    4.2422   -2.9440   -2.5217 H   0  0  0  0  0  0  0  0  0  0  0  0
    6.6620   -2.5379   -2.1603 H   0  0  0  0  0  0  0  0  0  0  0  0
   -7.1440   -3.8563    0.7218 H   0  0  0  0  0  0  0  0  0  0  0  0
   -5.5149   -3.6472    1.3549 H   0  0  0  0  0  0  0  0  0  0  0  0
   -5.8016   -3.9840   -0.4096 H   0  0  0  0  0  0  0  0  0  0  0  0
  1 15  2  0  0  0  0
  2 16  2  0  0  0  0
  3 25  1  0  0  0  0
  3 31  1  0  0  0  0
  4 10  1  0  0  0  0
  4 13  1  0  0  0  0
  4 15  1  0  0  0  0
  5 11  1  0  0  0  0
  5 12  1  0  0  0  0
  5 16  1  0  0  0  0
  6 16  1  0  0  0  0
  6 22  1  0  0  0  0
  6 44  1  0  0  0  0
  7  9  1  0  0  0  0
  7 10  1  0  0  0  0
  7 11  1  0  0  0  0
  7 32  1  0  0  0  0
  8  9  1  0  0  0  0
  8 12  1  0  0  0  0
  8 13  1  0  0  0  0
  8 33  1  0  0  0  0
  9 34  1  0  0  0  0
  9 35  1  0  0  0  0
 10 36  1  0  0  0  0
 10 37  1  0  0  0  0
 11 38  1  0  0  0  0
 11 39  1  0  0  0  0
 12 40  1  0  0  0  0
 12 41  1  0  0  0  0
 13 14  2  0  0  0  0
 14 17  1  0  0  0  0
 14 19  1  0  0  0  0
 15 18  1  0  0  0  0
 17 18  2  0  0  0  0
 17 42  1  0  0  0  0
 18 43  1  0  0  0  0
 19 20  2  0  0  0  0
 19 21  1  0  0  0  0
 20 23  1  0  0  0  0
 20 45  1  0  0  0  0
 21 24  2  0  0  0  0
 21 46  1  0  0  0  0
 22 26  2  0  0  0  0
 22 27  1  0  0  0  0
 23 25  2  0  0  0  0
 23 47  1  0  0  0  0
 24 25  1  0  0  0  0
 24 48  1  0  0  0  0
 26 28  1  0  0  0  0
 26 49  1  0  0  0  0
 27 29  2  0  0  0  0
 27 50  1  0  0  0  0
 28 30  2  0  0  0  0
 28 51  1  0  0  0  0
 29 30  1  0  0  0  0
 29 52  1  0  0  0  0
 30 53  1  0  0  0  0
 31 54  1  0  0  0  0
 31 55  1  0  0  0  0
 31 56  1  0  0  0  0
M  END
> <PUBCHEM_COMPOUND_CID>
40587810

> <PUBCHEM_CONFORMER_RMSD>
0.8

> <PUBCHEM_CONFORMER_DIVERSEORDER>
1
3
15
5
10
8
11
7
12
6
13
2
14
4
9

> <PUBCHEM_MMFF94_PARTIAL_CHARGES>
41
1 -0.57
10 0.3
11 0.3
12 0.3
13 -0.03
14 -0.03
15 0.62
16 0.69
17 -0.15
18 -0.14
19 0.03
2 -0.57
20 -0.15
21 -0.15
22 0.12
23 -0.15
24 -0.15
25 0.08
26 -0.15
27 -0.15
28 -0.15
29 -0.15
3 -0.36
30 -0.15
31 0.28
4 -0.47
42 0.15
43 0.15
44 0.37
45 0.15
46 0.15
47 0.15
48 0.15
49 0.15
5 -0.66
50 0.15
51 0.15
52 0.15
53 0.15
6 -0.55
8 0.14

> <PUBCHEM_EFFECTIVE_ROTOR_COUNT>
6

> <PUBCHEM_PHARMACOPHORE_FEATURES>
9
1 1 acceptor
1 2 acceptor
1 3 acceptor
1 6 donor
6 19 20 21 23 24 25 rings
6 22 26 27 28 29 30 rings
6 4 13 14 15 17 18 rings
6 4 7 8 9 10 13 rings
6 5 7 8 9 11 12 rings

> <PUBCHEM_HEAVY_ATOM_COUNT>
31

> <PUBCHEM_ATOM_DEF_STEREO_COUNT>
2

> <PUBCHEM_ATOM_UDEF_STEREO_COUNT>
0

> <PUBCHEM_BOND_DEF_STEREO_COUNT>
0

> <PUBCHEM_BOND_UDEF_STEREO_COUNT>
0

> <PUBCHEM_ISOTOPIC_ATOM_COUNT>
0

> <PUBCHEM_COMPONENT_COUNT>
1

> <PUBCHEM_CACTVS_TAUTO_COUNT>
6

> <PUBCHEM_CONFORMER_ID>
026B522200000001

> <PUBCHEM_MMFF94_ENERGY>
105.9982

> <PUBCHEM_FEATURE_SELFOVERLAP>
47.235

> <PUBCHEM_SHAPE_FINGERPRINT>
10369192 42 17906992312971845080
10764073 3 16054368808105990905
11135609 201 12180118728069929343
11374522 184 18115597084053563268
11399939 17 17200503315409039071
11513181 2 17685501248706405499
11607047 141 18267881630453762977
11954058 11 18058442265774859023
11961588 58 13623533480255452513
12082328 90 17702106860347975398
12156800 1 17057841475340540544
12633257 1 14261337060204155376
13103583 49 14907886193931209646
13135754 10 17631171879337377960
13383661 66 18339656563440400998
13673619 4 18409729582334784131
14251740 57 18118681261150604395
14251764 30 18343019973619800431
14466204 15 11600004357992654363
14739800 52 9727369999769741975
14767858 380 16370728118990736235
14955137 171 18202565098839714835
15082195 135 11965038920322325983
15461852 350 18041277653122042978
15721738 202 18342464755292573812
16989378 47 17822569533858179351
17492 54 16443068291695730386
17974551 9 13685139142561681318
1813 80 17531506768545151089
20429585 67 18201427096084011664
20567600 254 10737284649337738834
20775438 99 17534621809029567674
20775530 9 18341601620805009502
21344244 246 17969794170755043188
21403212 168 11167945723217861594
21475661 188 10015582834863430178
21716022 299 18268444583980413232
23559900 14 18261944241915048357
2838139 119 14418133963903028398
437815 12 18201996621279058403
469060 322 18115879507642662486
497634 4 18197784302286434646
5081480 168 18041266764440535647
513202 73 16701181850884028158
57527585 21 16300667148206696934
58260988 114 17701834176372714674
6669772 16 15503223443797310996
6823239 73 17822841083117248849

> <PUBCHEM_SHAPE_MULTIPOLES>
605.41
12.56
3.72
2.52
0.66
0.19
-0.7
-17.11
-1.16
-0.5
0.12
0.95
1.86
1.62

> <PUBCHEM_SHAPE_SELFOVERLAP>
1329.956

> <PUBCHEM_SHAPE_VOLUME>
318.9

> <PUBCHEM_COORDINATE_TYPE>
2
5
10

$$$$
