7142730
  -OEChem-12032416273D

 55 59  0     1  0  0  0  0  0999 V2000
    5.8867   -1.0803    1.1032 S   0  0  0  0  0  0  0  0  0  0  0  0
    2.3854    1.8487    1.6615 O   0  0  0  0  0  0  0  0  0  0  0  0
   -2.8599    0.8776    2.1336 O   0  0  0  0  0  0  0  0  0  0  0  0
   -3.2475   -1.2886    0.8896 O   0  0  0  0  0  0  0  0  0  0  0  0
    3.0785   -1.8416   -1.4059 O   0  0  0  0  0  0  0  0  0  0  0  0
   -2.4286    2.1902    0.2654 N   0  0  0  0  0  0  0  0  0  0  0  0
    0.7513    2.4909    0.1195 N   0  0  0  0  0  0  0  0  0  0  0  0
    3.4887    0.0027   -0.0491 N   0  0  0  0  0  0  0  0  0  0  0  0
   -1.0459    4.2346    0.6514 C   0  0  1  0  0  0  0  0  0  0  0  0
   -1.0191    3.1418   -1.5512 C   0  0  2  0  0  0  0  0  0  0  0  0
   -1.0363    4.4981   -0.8495 C   0  0  0  0  0  0  0  0  0  0  0  0
   -2.2893    3.4198    1.0480 C   0  0  0  0  0  0  0  0  0  0  0  0
    0.2565    3.5242    1.0389 C   0  0  0  0  0  0  0  0  0  0  0  0
   -2.2950    2.3564   -1.1896 C   0  0  0  0  0  0  0  0  0  0  0  0
    0.2076    2.3393   -1.1600 C   0  0  0  0  0  0  0  0  0  0  0  0
    0.7511    1.4677   -2.0263 C   0  0  0  0  0  0  0  0  0  0  0  0
    1.8617    1.7380    0.5520 C   0  0  0  0  0  0  0  0  0  0  0  0
   -2.7526    0.9964    0.9103 C   0  0  0  0  0  0  0  0  0  0  0  0
    2.4220    0.7603   -0.4341 C   0  0  0  0  0  0  0  0  0  0  0  0
    1.8796    0.6628   -1.6525 C   0  0  0  0  0  0  0  0  0  0  0  0
   -2.9723   -0.2084    0.0309 C   0  0  0  0  0  0  0  0  0  0  0  0
    3.7547   -1.2600   -0.5609 C   0  0  0  0  0  0  0  0  0  0  0  0
   -4.0248   -2.3105    0.3915 C   0  0  0  0  0  0  0  0  0  0  0  0
    4.9767   -1.9234   -0.0364 C   0  0  0  0  0  0  0  0  0  0  0  0
   -3.9877   -2.5957   -0.9652 C   0  0  0  0  0  0  0  0  0  0  0  0
   -4.8312   -3.0360    1.2556 C   0  0  0  0  0  0  0  0  0  0  0  0
    5.4425   -3.1354   -0.3733 C   0  0  0  0  0  0  0  0  0  0  0  0
   -4.7757   -3.6303   -1.4696 C   0  0  0  0  0  0  0  0  0  0  0  0
   -5.6190   -4.0706    0.7511 C   0  0  0  0  0  0  0  0  0  0  0  0
    6.6391   -3.4173    0.3468 C   0  0  0  0  0  0  0  0  0  0  0  0
   -5.5912   -4.3677   -0.6115 C   0  0  0  0  0  0  0  0  0  0  0  0
    6.9939   -2.3839    1.1857 C   0  0  0  0  0  0  0  0  0  0  0  0
   -1.0899    5.1885    1.1915 H   0  0  0  0  0  0  0  0  0  0  0  0
   -1.0163    3.3176   -2.6348 H   0  0  0  0  0  0  0  0  0  0  0  0
   -0.1597    5.0944   -1.1320 H   0  0  0  0  0  0  0  0  0  0  0  0
   -1.9238    5.0714   -1.1438 H   0  0  0  0  0  0  0  0  0  0  0  0
   -3.1942    4.0120    0.8634 H   0  0  0  0  0  0  0  0  0  0  0  0
   -2.2685    3.1967    2.1201 H   0  0  0  0  0  0  0  0  0  0  0  0
    1.0588    4.2722    1.1007 H   0  0  0  0  0  0  0  0  0  0  0  0
    0.1732    3.0887    2.0426 H   0  0  0  0  0  0  0  0  0  0  0  0
   -3.1823    2.9071   -1.5258 H   0  0  0  0  0  0  0  0  0  0  0  0
   -2.3052    1.3966   -1.7109 H   0  0  0  0  0  0  0  0  0  0  0  0
    0.3428    1.3273   -3.0217 H   0  0  0  0  0  0  0  0  0  0  0  0
    2.2626    0.0265   -2.4408 H   0  0  0  0  0  0  0  0  0  0  0  0
   -2.0569   -0.4193   -0.5312 H   0  0  0  0  0  0  0  0  0  0  0  0
   -3.8148    0.0186   -0.6338 H   0  0  0  0  0  0  0  0  0  0  0  0
    3.9960    0.3054    0.7786 H   0  0  0  0  0  0  0  0  0  0  0  0
   -3.3477   -2.0603   -1.6596 H   0  0  0  0  0  0  0  0  0  0  0  0
   -4.8549   -2.8066    2.3168 H   0  0  0  0  0  0  0  0  0  0  0  0
    4.9862   -3.8103   -1.0858 H   0  0  0  0  0  0  0  0  0  0  0  0
   -4.7502   -3.8658   -2.5296 H   0  0  0  0  0  0  0  0  0  0  0  0
   -6.2539   -4.6450    1.4193 H   0  0  0  0  0  0  0  0  0  0  0  0
    7.2108   -4.3316    0.2543 H   0  0  0  0  0  0  0  0  0  0  0  0
   -6.2036   -5.1743   -1.0040 H   0  0  0  0  0  0  0  0  0  0  0  0
    7.8503   -2.3321    1.8430 H   0  0  0  0  0  0  0  0  0  0  0  0
  1 24  1  0  0  0  0
  1 32  1  0  0  0  0
  2 17  2  0  0  0  0
  3 18  2  0  0  0  0
  4 21  1  0  0  0  0
  4 23  1  0  0  0  0
  5 22  2  0  0  0  0
  6 12  1  0  0  0  0
  6 14  1  0  0  0  0
  6 18  1  0  0  0  0
  7 13  1  0  0  0  0
  7 15  1  0  0  0  0
  7 17  1  0  0  0  0
  8 19  1  0  0  0  0
  8 22  1  0  0  0  0
  8 47  1  0  0  0  0
  9 11  1  0  0  0  0
  9 12  1  0  0  0  0
  9 13  1  0  0  0  0
  9 33  1  0  0  0  0
 10 11  1  0  0  0  0
 10 14  1  0  0  0  0
 10 15  1  0  0  0  0
 10 34  1  0  0  0  0
 11 35  1  0  0  0  0
 11 36  1  0  0  0  0
 12 37  1  0  0  0  0
 12 38  1  0  0  0  0
 13 39  1  0  0  0  0
 13 40  1  0  0  0  0
 14 41  1  0  0  0  0
 14 42  1  0  0  0  0
 15 16  2  0  0  0  0
 16 20  1  0  0  0  0
 16 43  1  0  0  0  0
 17 19  1  0  0  0  0
 18 21  1  0  0  0  0
 19 20  2  0  0  0  0
 20 44  1  0  0  0  0
 21 45  1  0  0  0  0
 21 46  1  0  0  0  0
 22 24  1  0  0  0  0
 23 25  2  0  0  0  0
 23 26  1  0  0  0  0
 24 27  2  0  0  0  0
 25 28  1  0  0  0  0
 25 48  1  0  0  0  0
 26 29  2  0  0  0  0
 26 49  1  0  0  0  0
 27 30  1  0  0  0  0
 27 50  1  0  0  0  0
 28 31  2  0  0  0  0
 28 51  1  0  0  0  0
 29 31  1  0  0  0  0
 29 52  1  0  0  0  0
 30 32  2  0  0  0  0
 30 53  1  0  0  0  0
 31 54  1  0  0  0  0
 32 55  1  0  0  0  0
M  END
> <PUBCHEM_COMPOUND_CID>
7142730

> <PUBCHEM_CONFORMER_RMSD>
1

> <PUBCHEM_CONFORMER_DIVERSEORDER>
1
42
26
20
15
36
45
39
17
10
35
23
31
22
46
9
43
6
33
50
12
18
11
21
16
8
13
2
28
29
25
27
32
5
19
4
38
41
49
24
37
40
30
47
3
34
44
48
7
14

> <PUBCHEM_MMFF94_PARTIAL_CHARGES>
41
1 -0.08
10 0.14
12 0.3
13 0.3
14 0.3
15 -0.03
16 -0.15
17 0.62
18 0.57
19 0.12
2 -0.57
20 -0.15
21 0.34
22 0.71
23 0.08
24 -0.05
25 -0.15
26 -0.15
27 -0.15
28 -0.15
29 -0.15
3 -0.57
30 -0.15
31 -0.15
32 -0.11
4 -0.36
43 0.15
44 0.15
47 0.37
48 0.15
49 0.15
5 -0.57
50 0.15
51 0.15
52 0.15
53 0.15
54 0.15
55 0.15
6 -0.66
7 -0.47
8 -0.54

> <PUBCHEM_EFFECTIVE_ROTOR_COUNT>
8

> <PUBCHEM_PHARMACOPHORE_FEATURES>
10
1 2 acceptor
1 3 acceptor
1 4 acceptor
1 5 acceptor
1 8 donor
5 1 24 27 30 32 rings
6 23 25 26 28 29 31 rings
6 6 9 10 11 12 14 rings
6 7 15 16 17 19 20 rings
6 7 9 10 11 13 15 rings

> <PUBCHEM_HEAVY_ATOM_COUNT>
32

> <PUBCHEM_ATOM_DEF_STEREO_COUNT>
2

> <PUBCHEM_ATOM_UDEF_STEREO_COUNT>
0

> <PUBCHEM_BOND_DEF_STEREO_COUNT>
0

> <PUBCHEM_BOND_UDEF_STEREO_COUNT>
0

> <PUBCHEM_ISOTOPIC_ATOM_COUNT>
0

> <PUBCHEM_COMPONENT_COUNT>
1

> <PUBCHEM_CACTVS_TAUTO_COUNT>
2

> <PUBCHEM_CONFORMER_ID>
006CFD4A00000001

> <PUBCHEM_MMFF94_ENERGY>
91.2398

> <PUBCHEM_FEATURE_SELFOVERLAP>
52.328

> <PUBCHEM_SHAPE_FINGERPRINT>
10622 236 18259707800277205182
11069576 57 17973731573275409301
11135609 149 18051954103857756039
11497681 19 18407764742687875038
11552529 35 18266459811173485616
11607047 403 18123182674781825496
12107183 9 18127715879824060739
12202916 173 17914883254552237709
12655364 74 13518858405803415727
12977781 61 18194655237869965341
12990986 174 18411140195227760250
13947947 140 18343306941854732635
14114206 34 16732702718542508797
14344974 204 18338796711684431222
14429380 30 18408325514233625098
14659021 117 18267289937682865565
14674994 50 18188766133411290349
14844126 61 18191594055526530393
14856354 85 18125722288869876692
14863182 85 17619351352177279249
15803439 3 17101968046844352981
17324776 126 18338788026585604958
19315092 285 17845098548105650387
19611394 137 18200586975017318938
20721686 124 17257362476396346765
20775438 99 17471845278894711059
20775530 9 18267321978418124351
21133410 58 18050839220543073271
21360442 33 17977379757758953159
22956985 138 18338792437927617200
23523787 8 17247760028827956389
23569914 152 18125126499992727687
3044373 233 17683267006782181483
3383291 50 18123193403272624625
345986 75 17628938986687011523
397830 11 18340757149806065682
4017518 198 17686901614112589637
437795 96 17911525294032767678
444735 79 18268980042622672154
4616759 239 17770481064198514882
484985 159 18190453857762924717
5223283 242 18263074591772253831
56633871 153 18339377296561196707
6058803 2 18190206562279452572
6441014 3 18410009940051266506

> <PUBCHEM_SHAPE_MULTIPOLES>
623.97
14.64
7.5
1.69
14.87
0.25
-0.14
-29.24
3.27
-7.81
-0.12
-0.45
0.5
-0.76

> <PUBCHEM_SHAPE_SELFOVERLAP>
1357.609

> <PUBCHEM_SHAPE_VOLUME>
338.4

> <PUBCHEM_COORDINATE_TYPE>
2
5
10

$$$$
