11883999
  -OEChem-12032416173D

 66 71  0     1  0  0  0  0  0999 V2000
    1.8807   -1.7868   -0.8134 O   0  0  0  0  0  0  0  0  0  0  0  0
    0.8480   -2.7398    1.9122 O   0  0  0  0  0  0  0  0  0  0  0  0
    3.9339   -1.1912    0.9575 O   0  0  0  0  0  0  0  0  0  0  0  0
   -3.1446   -2.1662    0.2766 O   0  0  0  0  0  0  0  0  0  0  0  0
    4.0143    1.0408    1.4489 O   0  0  0  0  0  0  0  0  0  0  0  0
   -8.6099    0.9360   -1.4167 O   0  0  0  0  0  0  0  0  0  0  0  0
   -1.2333   -1.4957   -0.8384 N   0  0  0  0  0  0  0  0  0  0  0  0
   -3.2267   -0.4730   -1.3473 N   0  0  0  0  0  0  0  0  0  0  0  0
    5.8347   -0.0722    0.4860 N   0  0  0  0  0  0  0  0  0  0  0  0
    0.3515   -1.7396    0.9984 C   0  0  1  0  0  0  0  0  0  0  0  0
    1.5622   -1.0634    0.3872 C   0  0  1  0  0  0  0  0  0  0  0  0
   -0.3260   -2.4023   -0.1783 C   0  0  2  0  0  0  0  0  0  0  0  0
    2.6154   -1.2551    1.4520 C   0  0  1  0  0  0  0  0  0  0  0  0
    0.8512   -2.7540   -1.0716 C   0  0  0  0  0  0  0  0  0  0  0  0
    2.2763   -2.6257    1.9931 C   0  0  0  0  0  0  0  0  0  0  0  0
   -2.6041   -1.4430   -0.5566 C   0  0  0  0  0  0  0  0  0  0  0  0
    4.5587    0.0379    1.0038 C   0  0  0  0  0  0  0  0  0  0  0  0
   -4.5946   -0.1139   -1.3640 C   0  0  0  0  0  0  0  0  0  0  0  0
    6.8085    0.9429    0.3478 C   0  0  0  0  0  0  0  0  0  0  0  0
    8.0752    0.6832   -0.2005 C   0  0  0  0  0  0  0  0  0  0  0  0
   -5.4958   -0.7603   -0.5179 C   0  0  0  0  0  0  0  0  0  0  0  0
   -5.0429    0.8860   -2.2272 C   0  0  0  0  0  0  0  0  0  0  0  0
    6.4685    2.2255    0.7787 C   0  0  0  0  0  0  0  0  0  0  0  0
    9.0100    1.7398   -0.3134 C   0  0  0  0  0  0  0  0  0  0  0  0
    8.4347   -0.6016   -0.6392 C   0  0  0  0  0  0  0  0  0  0  0  0
    7.3877    3.2646    0.6673 C   0  0  0  0  0  0  0  0  0  0  0  0
   -6.8450   -0.4070   -0.5351 C   0  0  0  0  0  0  0  0  0  0  0  0
   -6.3920    1.2393   -2.2445 C   0  0  0  0  0  0  0  0  0  0  0  0
    8.6507    3.0247    0.1251 C   0  0  0  0  0  0  0  0  0  0  0  0
   -7.2932    0.5929   -1.3983 C   0  0  0  0  0  0  0  0  0  0  0  0
   10.2767    1.4804   -0.8616 C   0  0  0  0  0  0  0  0  0  0  0  0
    9.6977   -0.8413   -1.1811 C   0  0  0  0  0  0  0  0  0  0  0  0
   10.6170    0.1977   -1.2921 C   0  0  0  0  0  0  0  0  0  0  0  0
   -9.2484    1.1046   -0.1993 C   0  0  0  0  0  0  0  0  0  0  0  0
   -8.6277    1.8271    0.8196 C   0  0  0  0  0  0  0  0  0  0  0  0
  -10.5116    0.5507    0.0082 C   0  0  0  0  0  0  0  0  0  0  0  0
   -9.2702    1.9961    2.0461 C   0  0  0  0  0  0  0  0  0  0  0  0
  -11.1542    0.7197    1.2346 C   0  0  0  0  0  0  0  0  0  0  0  0
  -10.5335    1.4423    2.2535 C   0  0  0  0  0  0  0  0  0  0  0  0
   -0.2855   -1.0558    1.5684 H   0  0  0  0  0  0  0  0  0  0  0  0
    1.3999   -0.0173    0.1119 H   0  0  0  0  0  0  0  0  0  0  0  0
   -0.8758   -3.3066    0.1038 H   0  0  0  0  0  0  0  0  0  0  0  0
    2.4481   -0.5342    2.2643 H   0  0  0  0  0  0  0  0  0  0  0  0
    0.6121   -2.7530   -2.1395 H   0  0  0  0  0  0  0  0  0  0  0  0
    1.2598   -3.7366   -0.8111 H   0  0  0  0  0  0  0  0  0  0  0  0
    2.7295   -3.4301    1.4029 H   0  0  0  0  0  0  0  0  0  0  0  0
    2.5967   -2.7544    3.0314 H   0  0  0  0  0  0  0  0  0  0  0  0
   -0.8504   -0.8191   -1.4919 H   0  0  0  0  0  0  0  0  0  0  0  0
   -2.6316    0.0409   -1.9923 H   0  0  0  0  0  0  0  0  0  0  0  0
    6.0792   -1.0046    0.1737 H   0  0  0  0  0  0  0  0  0  0  0  0
   -5.2262   -1.5465    0.1729 H   0  0  0  0  0  0  0  0  0  0  0  0
   -4.3512    1.3974   -2.8917 H   0  0  0  0  0  0  0  0  0  0  0  0
    5.5204    2.5083    1.2097 H   0  0  0  0  0  0  0  0  0  0  0  0
    7.7672   -1.4551   -0.5818 H   0  0  0  0  0  0  0  0  0  0  0  0
    7.1240    4.2638    1.0021 H   0  0  0  0  0  0  0  0  0  0  0  0
    9.3534    3.8518    0.0477 H   0  0  0  0  0  0  0  0  0  0  0  0
   -7.5293   -0.9431    0.1174 H   0  0  0  0  0  0  0  0  0  0  0  0
   -6.7355    2.0187   -2.9191 H   0  0  0  0  0  0  0  0  0  0  0  0
   11.0111    2.2774   -0.9581 H   0  0  0  0  0  0  0  0  0  0  0  0
    9.9640   -1.8394   -1.5168 H   0  0  0  0  0  0  0  0  0  0  0  0
   11.6001    0.0104   -1.7142 H   0  0  0  0  0  0  0  0  0  0  0  0
   -7.6536    2.2877    0.6778 H   0  0  0  0  0  0  0  0  0  0  0  0
  -10.9994   -0.0135   -0.7819 H   0  0  0  0  0  0  0  0  0  0  0  0
   -8.7894    2.5629    2.8380 H   0  0  0  0  0  0  0  0  0  0  0  0
  -12.1380    0.2887    1.3962 H   0  0  0  0  0  0  0  0  0  0  0  0
  -11.0344    1.5748    3.2080 H   0  0  0  0  0  0  0  0  0  0  0  0
  1 11  1  0  0  0  0
  1 14  1  0  0  0  0
  2 10  1  0  0  0  0
  2 15  1  0  0  0  0
  3 13  1  0  0  0  0
  3 17  1  0  0  0  0
  4 16  2  0  0  0  0
  5 17  2  0  0  0  0
  6 30  1  0  0  0  0
  6 34  1  0  0  0  0
  7 12  1  0  0  0  0
  7 16  1  0  0  0  0
  7 48  1  0  0  0  0
  8 16  1  0  0  0  0
  8 18  1  0  0  0  0
  8 49  1  0  0  0  0
  9 17  1  0  0  0  0
  9 19  1  0  0  0  0
  9 50  1  0  0  0  0
 10 11  1  0  0  0  0
 10 12  1  0  0  0  0
 10 40  1  0  0  0  0
 11 13  1  0  0  0  0
 11 41  1  0  0  0  0
 12 14  1  0  0  0  0
 12 42  1  0  0  0  0
 13 15  1  0  0  0  0
 13 43  1  0  0  0  0
 14 44  1  0  0  0  0
 14 45  1  0  0  0  0
 15 46  1  0  0  0  0
 15 47  1  0  0  0  0
 18 21  2  0  0  0  0
 18 22  1  0  0  0  0
 19 20  1  0  0  0  0
 19 23  2  0  0  0  0
 20 24  1  0  0  0  0
 20 25  2  0  0  0  0
 21 27  1  0  0  0  0
 21 51  1  0  0  0  0
 22 28  2  0  0  0  0
 22 52  1  0  0  0  0
 23 26  1  0  0  0  0
 23 53  1  0  0  0  0
 24 29  1  0  0  0  0
 24 31  2  0  0  0  0
 25 32  1  0  0  0  0
 25 54  1  0  0  0  0
 26 29  2  0  0  0  0
 26 55  1  0  0  0  0
 27 30  2  0  0  0  0
 27 57  1  0  0  0  0
 28 30  1  0  0  0  0
 28 58  1  0  0  0  0
 29 56  1  0  0  0  0
 31 33  1  0  0  0  0
 31 59  1  0  0  0  0
 32 33  2  0  0  0  0
 32 60  1  0  0  0  0
 33 61  1  0  0  0  0
 34 35  2  0  0  0  0
 34 36  1  0  0  0  0
 35 37  1  0  0  0  0
 35 62  1  0  0  0  0
 36 38  2  0  0  0  0
 36 63  1  0  0  0  0
 37 39  2  0  0  0  0
 37 64  1  0  0  0  0
 38 39  1  0  0  0  0
 38 65  1  0  0  0  0
 39 66  1  0  0  0  0
M  END
> <PUBCHEM_COMPOUND_CID>
11883999

> <PUBCHEM_CONFORMER_RMSD>
1.4

> <PUBCHEM_CONFORMER_DIVERSEORDER>
1
111
101
83
85
8
44
80
97
28
99
64
46
98
17
69
92
11
79
75
50
106
70
105
54
12
5
95
94
51
24
61
21
84
62
108
20
116
58
30
47
88
71
74
110
90
16
66
41
53
19
91
104
82
57
113
45
81
86
96
118
100
78
103
117
89
60
39
115
37
109
73
76
107
55
36
72
102
31
26
35
3
119
33
42
15
48
2
77
14
29
49
25
7
56
34
23
6
40
67
93
32
65
22
10
9
114
63
38
112
18
87
68
4
13
43
59
52
27

> <PUBCHEM_MMFF94_PARTIAL_CHARGES>
56
1 -0.56
10 0.28
11 0.28
12 0.3
13 0.28
14 0.28
15 0.28
16 0.69
17 0.78
18 0.12
19 0.12
2 -0.56
21 -0.15
22 -0.15
23 -0.15
25 -0.15
26 -0.15
27 -0.15
28 -0.15
29 -0.15
3 -0.43
30 0.08
31 -0.15
32 -0.15
33 -0.15
34 0.08
35 -0.15
36 -0.15
37 -0.15
38 -0.15
39 -0.15
4 -0.57
48 0.37
49 0.37
5 -0.57
50 0.37
51 0.15
52 0.15
53 0.15
54 0.15
55 0.15
56 0.15
57 0.15
58 0.15
59 0.15
6 -0.17
60 0.15
61 0.15
62 0.15
63 0.15
64 0.15
65 0.15
66 0.15
7 -0.73
8 -0.55
9 -0.55

> <PUBCHEM_EFFECTIVE_ROTOR_COUNT>
11.2

> <PUBCHEM_PHARMACOPHORE_FEATURES>
14
1 1 acceptor
1 2 acceptor
1 4 acceptor
1 5 acceptor
1 6 acceptor
1 7 donor
1 8 donor
1 9 donor
5 1 10 11 12 14 rings
5 2 10 11 13 15 rings
6 18 21 22 27 28 30 rings
6 19 20 23 24 26 29 rings
6 20 24 25 31 32 33 rings
6 34 35 36 37 38 39 rings

> <PUBCHEM_HEAVY_ATOM_COUNT>
39

> <PUBCHEM_ATOM_DEF_STEREO_COUNT>
4

> <PUBCHEM_ATOM_UDEF_STEREO_COUNT>
0

> <PUBCHEM_BOND_DEF_STEREO_COUNT>
0

> <PUBCHEM_BOND_UDEF_STEREO_COUNT>
0

> <PUBCHEM_ISOTOPIC_ATOM_COUNT>
0

> <PUBCHEM_COMPONENT_COUNT>
1

> <PUBCHEM_CACTVS_TAUTO_COUNT>
6

> <PUBCHEM_CONFORMER_ID>
00B555DF00000001

> <PUBCHEM_MMFF94_ENERGY>
135.9323

> <PUBCHEM_FEATURE_SELFOVERLAP>
71.845

> <PUBCHEM_SHAPE_FINGERPRINT>
10055352 69 18259980496804570705
10920273 25 18131637781681042673
10952577 141 18202562895611033567
11181472 205 18272090466212364938
12013929 112 16128656345291333205
12098696 120 18040711463660344652
12120059 9 8142098562758031955
12125137 17 18272376373801281145
13008946 335 17821450174785504915
14040221 8 17060341799252312624
14400156 260 18337098034937916736
14747281 78 18335139787844850786
14918687 75 12901551260241130153
15320295 40 10231755604477154295
15326923 82 10807929376152081850
15350500 16 8214142962935903381
15392192 104 14923943436590417706
15706992 2 17894354380202745014
16664035 7 11602820186055489943
16992610 120 17346598574187491767
1768 4 18333729114140876029
19302320 297 17312820507319410156
20156587 128 17203335468572902062
2026 5 10303546016826198653
20501277 180 18200586008323221176
20501277 279 17967250901807974681
21792938 169 10881982621769055842
21867126 195 11386370370276910443
22002106 203 8358254843945204081
23729398 52 18051131397834694574
24203241 11 12901834951442344561
24771293 8 17603297172246024487
3986486 107 17418372510466331888
3991529 128 16370730340495903846
4173938 188 14129063621060755745
4339292 15 10879995748396157651
4353968 344 9943813279588420603
474113 269 8790887389339546089
6201320 221 15051468055144757788
9689198 14 18261106405275162598
9962374 69 11242261761463236783

> <PUBCHEM_SHAPE_MULTIPOLES>
752.44
47.65
3.07
1.96
20.82
0.01
0.11
-39.36
-1.16
-3.97
1.03
3.55
-0.05
-1.39

> <PUBCHEM_SHAPE_SELFOVERLAP>
1664.265

> <PUBCHEM_SHAPE_VOLUME>
401.7

> <PUBCHEM_COORDINATE_TYPE>
2
5
10

$$$$
