7051260
  -OEChem-12032416113D

 63 67  0     1  0  0  0  0  0999 V2000
   -2.0094    2.2970   -0.9807 S   0  0  0  0  0  0  0  0  0  0  0  0
    0.9242    3.3593   -0.9220 O   0  0  0  0  0  0  0  0  0  0  0  0
    3.1496   -1.0198   -2.5703 O   0  0  0  0  0  0  0  0  0  0  0  0
   -2.4374    3.5136   -1.6453 O   0  0  0  0  0  0  0  0  0  0  0  0
   -1.1306    1.3638   -1.6599 O   0  0  0  0  0  0  0  0  0  0  0  0
   -0.7271   -4.8665    0.4767 O   0  0  0  0  0  0  0  0  0  0  0  0
   -6.8689   -0.6667    0.5607 O   0  0  0  0  0  0  0  0  0  0  0  0
    3.9385   -0.5937   -0.4089 N   0  0  0  0  0  0  0  0  0  0  0  0
    2.3055    2.0032    0.3978 N   0  0  0  0  0  0  0  0  0  0  0  0
   -1.3738    2.6726    0.5424 N   0  0  0  0  0  0  0  0  0  0  0  0
    4.8099    1.7096   -0.0470 C   0  0  1  0  0  0  0  0  0  0  0  0
    3.7470    0.4968    1.8138 C   0  0  2  0  0  0  0  0  0  0  0  0
    4.8990    1.4322    1.4498 C   0  0  0  0  0  0  0  0  0  0  0  0
    4.9219    0.3975   -0.8445 C   0  0  0  0  0  0  0  0  0  0  0  0
    3.4979    2.4500   -0.3348 C   0  0  0  0  0  0  0  0  0  0  0  0
    3.8967   -0.8302    1.0433 C   0  0  0  0  0  0  0  0  0  0  0  0
    2.4062    1.1284    1.4883 C   0  0  0  0  0  0  0  0  0  0  0  0
    1.3185    0.8198    2.2180 C   0  0  0  0  0  0  0  0  0  0  0  0
    1.0743    2.5747    0.0137 C   0  0  0  0  0  0  0  0  0  0  0  0
    3.1195   -1.2129   -1.3562 C   0  0  0  0  0  0  0  0  0  0  0  0
   -0.0924    2.1772    0.8411 C   0  0  0  0  0  0  0  0  0  0  0  0
    0.0272    1.3579    1.8864 C   0  0  0  0  0  0  0  0  0  0  0  0
    2.1151   -2.1679   -0.8763 C   0  0  0  0  0  0  0  0  0  0  0  0
    2.4415   -3.5165   -0.7568 C   0  0  0  0  0  0  0  0  0  0  0  0
    0.8389   -1.7212   -0.5430 C   0  0  0  0  0  0  0  0  0  0  0  0
    1.4853   -4.4242   -0.3011 C   0  0  0  0  0  0  0  0  0  0  0  0
   -0.1171   -2.6289   -0.0873 C   0  0  0  0  0  0  0  0  0  0  0  0
   -3.4671    1.4083   -0.5186 C   0  0  0  0  0  0  0  0  0  0  0  0
    0.2061   -3.9804    0.0337 C   0  0  0  0  0  0  0  0  0  0  0  0
   -3.3960    0.0368   -0.3496 C   0  0  0  0  0  0  0  0  0  0  0  0
   -4.6505    2.1013   -0.3351 C   0  0  0  0  0  0  0  0  0  0  0  0
   -4.5454   -0.6644    0.0148 C   0  0  0  0  0  0  0  0  0  0  0  0
   -5.8001    1.4002    0.0294 C   0  0  0  0  0  0  0  0  0  0  0  0
   -5.7474    0.0173    0.2044 C   0  0  0  0  0  0  0  0  0  0  0  0
   -2.0156   -4.3455    0.7996 C   0  0  0  0  0  0  0  0  0  0  0  0
   -6.7439   -2.0786    0.7235 C   0  0  0  0  0  0  0  0  0  0  0  0
    5.6434    2.3544   -0.3517 H   0  0  0  0  0  0  0  0  0  0  0  0
    3.8058    0.2828    2.8888 H   0  0  0  0  0  0  0  0  0  0  0  0
    5.8619    0.9684    1.6963 H   0  0  0  0  0  0  0  0  0  0  0  0
    4.8369    2.3671    2.0207 H   0  0  0  0  0  0  0  0  0  0  0  0
    4.8227    0.5966   -1.9169 H   0  0  0  0  0  0  0  0  0  0  0  0
    5.9118   -0.0491   -0.6900 H   0  0  0  0  0  0  0  0  0  0  0  0
    3.2747    2.4340   -1.4091 H   0  0  0  0  0  0  0  0  0  0  0  0
    3.6269    3.5083   -0.0697 H   0  0  0  0  0  0  0  0  0  0  0  0
    4.8431   -1.3157    1.3119 H   0  0  0  0  0  0  0  0  0  0  0  0
    3.0977   -1.5223    1.3201 H   0  0  0  0  0  0  0  0  0  0  0  0
    1.3729    0.1336    3.0567 H   0  0  0  0  0  0  0  0  0  0  0  0
   -0.8161    1.0588    2.4998 H   0  0  0  0  0  0  0  0  0  0  0  0
   -2.0368    2.5618    1.3227 H   0  0  0  0  0  0  0  0  0  0  0  0
    3.4355   -3.8720   -1.0148 H   0  0  0  0  0  0  0  0  0  0  0  0
    0.5774   -0.6721   -0.6400 H   0  0  0  0  0  0  0  0  0  0  0  0
    1.7430   -5.4757   -0.2091 H   0  0  0  0  0  0  0  0  0  0  0  0
   -1.0882   -2.2203    0.1628 H   0  0  0  0  0  0  0  0  0  0  0  0
   -2.4690   -0.5060   -0.4927 H   0  0  0  0  0  0  0  0  0  0  0  0
   -4.7097    3.1782   -0.4589 H   0  0  0  0  0  0  0  0  0  0  0  0
   -4.4334   -1.7366    0.1344 H   0  0  0  0  0  0  0  0  0  0  0  0
   -6.7332    1.9369    0.1775 H   0  0  0  0  0  0  0  0  0  0  0  0
   -2.5089   -3.9175   -0.0798 H   0  0  0  0  0  0  0  0  0  0  0  0
   -2.6309   -5.1877    1.1327 H   0  0  0  0  0  0  0  0  0  0  0  0
   -1.9659   -3.6365    1.6331 H   0  0  0  0  0  0  0  0  0  0  0  0
   -6.0571   -2.3306    1.5388 H   0  0  0  0  0  0  0  0  0  0  0  0
   -7.7304   -2.4599    1.0073 H   0  0  0  0  0  0  0  0  0  0  0  0
   -6.4698   -2.5694   -0.2165 H   0  0  0  0  0  0  0  0  0  0  0  0
  1  4  2  0  0  0  0
  1  5  2  0  0  0  0
  1 10  1  0  0  0  0
  1 28  1  0  0  0  0
  2 19  2  0  0  0  0
  3 20  2  0  0  0  0
  6 29  1  0  0  0  0
  6 35  1  0  0  0  0
  7 34  1  0  0  0  0
  7 36  1  0  0  0  0
  8 14  1  0  0  0  0
  8 16  1  0  0  0  0
  8 20  1  0  0  0  0
  9 15  1  0  0  0  0
  9 17  1  0  0  0  0
  9 19  1  0  0  0  0
 10 21  1  0  0  0  0
 10 49  1  0  0  0  0
 11 13  1  0  0  0  0
 11 14  1  0  0  0  0
 11 15  1  0  0  0  0
 11 37  1  0  0  0  0
 12 13  1  0  0  0  0
 12 16  1  0  0  0  0
 12 17  1  0  0  0  0
 12 38  1  0  0  0  0
 13 39  1  0  0  0  0
 13 40  1  0  0  0  0
 14 41  1  0  0  0  0
 14 42  1  0  0  0  0
 15 43  1  0  0  0  0
 15 44  1  0  0  0  0
 16 45  1  0  0  0  0
 16 46  1  0  0  0  0
 17 18  2  0  0  0  0
 18 22  1  0  0  0  0
 18 47  1  0  0  0  0
 19 21  1  0  0  0  0
 20 23  1  0  0  0  0
 21 22  2  0  0  0  0
 22 48  1  0  0  0  0
 23 24  2  0  0  0  0
 23 25  1  0  0  0  0
 24 26  1  0  0  0  0
 24 50  1  0  0  0  0
 25 27  2  0  0  0  0
 25 51  1  0  0  0  0
 26 29  2  0  0  0  0
 26 52  1  0  0  0  0
 27 29  1  0  0  0  0
 27 53  1  0  0  0  0
 28 30  2  0  0  0  0
 28 31  1  0  0  0  0
 30 32  1  0  0  0  0
 30 54  1  0  0  0  0
 31 33  2  0  0  0  0
 31 55  1  0  0  0  0
 32 34  2  0  0  0  0
 32 56  1  0  0  0  0
 33 34  1  0  0  0  0
 33 57  1  0  0  0  0
 35 58  1  0  0  0  0
 35 59  1  0  0  0  0
 35 60  1  0  0  0  0
 36 61  1  0  0  0  0
 36 62  1  0  0  0  0
 36 63  1  0  0  0  0
M  END
> <PUBCHEM_COMPOUND_CID>
7051260

> <PUBCHEM_CONFORMER_RMSD>
1

> <PUBCHEM_CONFORMER_DIVERSEORDER>
1
26
36
10
39
24
34
37
9
19
15
41
40
23
31
4
38
5
21
22
28
18
27
11
17
7
14
30
32
3
25
29
13
20
2
35
33
16
6
12
8

> <PUBCHEM_MMFF94_PARTIAL_CHARGES>
45
1 1.45
10 -0.75
12 0.14
14 0.3
15 0.3
16 0.3
17 -0.03
18 -0.15
19 0.62
2 -0.57
20 0.54
21 0.21
22 -0.15
23 0.09
24 -0.15
25 -0.15
26 -0.15
27 -0.15
28 -0.01
29 0.08
3 -0.57
30 -0.15
31 -0.15
32 -0.15
33 -0.15
34 0.08
35 0.28
36 0.28
4 -0.65
47 0.15
48 0.15
49 0.42
5 -0.65
50 0.15
51 0.15
52 0.15
53 0.15
54 0.15
55 0.15
56 0.15
57 0.15
6 -0.36
7 -0.36
8 -0.66
9 -0.47

> <PUBCHEM_EFFECTIVE_ROTOR_COUNT>
8

> <PUBCHEM_PHARMACOPHORE_FEATURES>
12
1 10 donor
1 2 acceptor
1 3 acceptor
1 4 acceptor
1 5 acceptor
1 6 acceptor
1 7 acceptor
6 23 24 25 26 27 29 rings
6 28 30 31 32 33 34 rings
6 8 11 12 13 14 16 rings
6 9 11 12 13 15 17 rings
6 9 17 18 19 21 22 rings

> <PUBCHEM_HEAVY_ATOM_COUNT>
36

> <PUBCHEM_ATOM_DEF_STEREO_COUNT>
2

> <PUBCHEM_ATOM_UDEF_STEREO_COUNT>
0

> <PUBCHEM_BOND_DEF_STEREO_COUNT>
0

> <PUBCHEM_BOND_UDEF_STEREO_COUNT>
0

> <PUBCHEM_ISOTOPIC_ATOM_COUNT>
0

> <PUBCHEM_COMPONENT_COUNT>
1

> <PUBCHEM_CACTVS_TAUTO_COUNT>
1

> <PUBCHEM_CONFORMER_ID>
006B97FC00000001

> <PUBCHEM_MMFF94_ENERGY>
110.9444

> <PUBCHEM_FEATURE_SELFOVERLAP>
62.501

> <PUBCHEM_SHAPE_FINGERPRINT>
10316853 100 18337678611099691555
10864689 126 18267029354176312215
12156800 1 17904227036921530052
13347071 3 17767125676733673975
13402501 40 18412826910494721827
13561361 72 18336263552334945075
1361 2 18410014355418967305
13617811 41 18260548892924853597
13726171 33 17978799226990480176
15264996 163 16389317240175178275
15968369 153 17554318503653636255
15968369 26 18047166593537673483
17093844 170 18342174475432498144
17909252 39 17984990284513142982
19301679 30 18336557097045230169
19319366 153 18272358750874790726
20764821 26 18192714664197382887
20775438 99 17324885228829990525
20775530 9 17621032062789018358
21133410 90 17129026263510128659
23559900 14 17903911163372312477
3737641 26 18271808956680340745
392239 28 18269837527810132163
4340502 62 17988914609617637672
463206 1 18129935797325282941
484989 97 18339936930563111854
508706 21 18267866271129252315
5265222 85 18267304411902410300
86090 222 18342178877631766243

> <PUBCHEM_SHAPE_MULTIPOLES>
694.55
12.32
5.76
1.64
17.44
6.67
0.09
-1.97
1.2
0.26
-0.49
-1.37
-0.48
2.31

> <PUBCHEM_SHAPE_SELFOVERLAP>
1506.801

> <PUBCHEM_SHAPE_VOLUME>
380.1

> <PUBCHEM_COORDINATE_TYPE>
2
5
10

$$$$
