11867156
  -OEChem-12032416363D

 48 51  0     1  0  0  0  0  0999 V2000
    2.9082   -0.3120   -1.2539 S   0  0  0  0  0  0  0  0  0  0  0  0
    0.2212   -1.7060   -2.0248 O   0  0  0  0  0  0  0  0  0  0  0  0
   -2.0934    2.4538    0.9171 O   0  0  0  0  0  0  0  0  0  0  0  0
   -2.9258    4.0795   -0.5755 O   0  0  0  0  0  0  0  0  0  0  0  0
   -4.5299    2.6481   -1.3912 O   0  0  0  0  0  0  0  0  0  0  0  0
    3.5260   -0.8385   -2.4563 O   0  0  0  0  0  0  0  0  0  0  0  0
    1.8499    0.6757   -1.3485 O   0  0  0  0  0  0  0  0  0  0  0  0
   -1.3346   -1.6083   -0.2755 N   0  0  0  0  0  0  0  0  0  0  0  0
   -3.5076    0.6534    0.4487 N   0  0  0  0  0  0  0  0  0  0  0  0
    2.4077   -1.5900   -0.2634 N   0  0  0  0  0  0  0  0  0  0  0  0
   -3.8635   -1.5648   -0.6565 C   0  0  2  0  0  0  0  0  0  0  0  0
   -2.9750   -1.4718    1.6332 C   0  0  2  0  0  0  0  0  0  0  0  0
   -3.9454   -2.2151    0.7185 C   0  0  0  0  0  0  0  0  0  0  0  0
   -2.4502   -1.7661   -1.2161 C   0  0  0  0  0  0  0  0  0  0  0  0
   -4.2476   -0.0753   -0.5837 C   0  0  0  0  0  0  0  0  0  0  0  0
   -3.4144   -0.0024    1.7555 C   0  0  0  0  0  0  0  0  0  0  0  0
   -1.5538   -1.5444    1.1069 C   0  0  0  0  0  0  0  0  0  0  0  0
   -0.5141   -1.5201    1.9610 C   0  0  0  0  0  0  0  0  0  0  0  0
   -0.0349   -1.6333   -0.8236 C   0  0  0  0  0  0  0  0  0  0  0  0
   -3.0209    1.9471    0.2972 C   0  0  0  0  0  0  0  0  0  0  0  0
    1.0695   -1.5799    0.1668 C   0  0  0  0  0  0  0  0  0  0  0  0
    0.8409   -1.5373    1.4799 C   0  0  0  0  0  0  0  0  0  0  0  0
   -3.5946    2.9226   -0.6662 C   0  0  0  0  0  0  0  0  0  0  0  0
    4.1955    0.3872   -0.2628 C   0  0  0  0  0  0  0  0  0  0  0  0
    5.4913   -0.0734   -0.4166 C   0  0  0  0  0  0  0  0  0  0  0  0
    3.8821    1.3811    0.6473 C   0  0  0  0  0  0  0  0  0  0  0  0
    6.5065    0.4775    0.3652 C   0  0  0  0  0  0  0  0  0  0  0  0
    4.8974    1.9322    1.4292 C   0  0  0  0  0  0  0  0  0  0  0  0
    6.2095    1.4803    1.2880 C   0  0  0  0  0  0  0  0  0  0  0  0
   -4.5713   -2.0541   -1.3373 H   0  0  0  0  0  0  0  0  0  0  0  0
   -3.0232   -1.9315    2.6290 H   0  0  0  0  0  0  0  0  0  0  0  0
   -3.6867   -3.2797    0.6591 H   0  0  0  0  0  0  0  0  0  0  0  0
   -4.9677   -2.1539    1.1110 H   0  0  0  0  0  0  0  0  0  0  0  0
   -2.3681   -2.7919   -1.6010 H   0  0  0  0  0  0  0  0  0  0  0  0
   -2.2780   -1.1082   -2.0771 H   0  0  0  0  0  0  0  0  0  0  0  0
   -4.0779    0.3793   -1.5633 H   0  0  0  0  0  0  0  0  0  0  0  0
   -5.3125    0.0268   -0.3437 H   0  0  0  0  0  0  0  0  0  0  0  0
   -4.4122    0.0542    2.2085 H   0  0  0  0  0  0  0  0  0  0  0  0
   -2.7379    0.5586    2.4108 H   0  0  0  0  0  0  0  0  0  0  0  0
   -0.6618   -1.4611    3.0343 H   0  0  0  0  0  0  0  0  0  0  0  0
    1.6373   -1.5013    2.2155 H   0  0  0  0  0  0  0  0  0  0  0  0
    3.0675   -1.8325    0.4893 H   0  0  0  0  0  0  0  0  0  0  0  0
   -3.2715    4.7582   -1.1937 H   0  0  0  0  0  0  0  0  0  0  0  0
    5.7409   -0.8583   -1.1237 H   0  0  0  0  0  0  0  0  0  0  0  0
    2.8659    1.7401    0.7774 H   0  0  0  0  0  0  0  0  0  0  0  0
    7.5279    0.1245    0.2570 H   0  0  0  0  0  0  0  0  0  0  0  0
    4.6661    2.7115    2.1494 H   0  0  0  0  0  0  0  0  0  0  0  0
    6.9998    1.9087    1.8975 H   0  0  0  0  0  0  0  0  0  0  0  0
  1  6  2  0  0  0  0
  1  7  2  0  0  0  0
  1 10  1  0  0  0  0
  1 24  1  0  0  0  0
  2 19  2  0  0  0  0
  3 20  2  0  0  0  0
  4 23  1  0  0  0  0
  4 43  1  0  0  0  0
  5 23  2  0  0  0  0
  8 14  1  0  0  0  0
  8 17  1  0  0  0  0
  8 19  1  0  0  0  0
  9 15  1  0  0  0  0
  9 16  1  0  0  0  0
  9 20  1  0  0  0  0
 10 21  1  0  0  0  0
 10 42  1  0  0  0  0
 11 13  1  0  0  0  0
 11 14  1  0  0  0  0
 11 15  1  0  0  0  0
 11 30  1  0  0  0  0
 12 13  1  0  0  0  0
 12 16  1  0  0  0  0
 12 17  1  0  0  0  0
 12 31  1  0  0  0  0
 13 32  1  0  0  0  0
 13 33  1  0  0  0  0
 14 34  1  0  0  0  0
 14 35  1  0  0  0  0
 15 36  1  0  0  0  0
 15 37  1  0  0  0  0
 16 38  1  0  0  0  0
 16 39  1  0  0  0  0
 17 18  2  0  0  0  0
 18 22  1  0  0  0  0
 18 40  1  0  0  0  0
 19 21  1  0  0  0  0
 20 23  1  0  0  0  0
 21 22  2  0  0  0  0
 22 41  1  0  0  0  0
 24 25  2  0  0  0  0
 24 26  1  0  0  0  0
 25 27  1  0  0  0  0
 25 44  1  0  0  0  0
 26 28  2  0  0  0  0
 26 45  1  0  0  0  0
 27 29  2  0  0  0  0
 27 46  1  0  0  0  0
 28 29  1  0  0  0  0
 28 47  1  0  0  0  0
 29 48  1  0  0  0  0
M  END
> <PUBCHEM_COMPOUND_CID>
11867156

> <PUBCHEM_CONFORMER_RMSD>
0.8

> <PUBCHEM_CONFORMER_DIVERSEORDER>
1
12
5
2
19
14
20
17
4
3
8
6
15
22
13
16
10
11
21
7
9
18

> <PUBCHEM_MMFF94_PARTIAL_CHARGES>
36
1 1.45
10 -0.75
12 0.14
14 0.3
15 0.3
16 0.3
17 -0.03
18 -0.15
19 0.62
2 -0.57
20 0.63
21 0.21
22 -0.15
23 0.72
24 -0.01
25 -0.15
26 -0.15
27 -0.15
28 -0.15
29 -0.15
3 -0.57
4 -0.65
40 0.15
41 0.15
42 0.42
43 0.5
44 0.15
45 0.15
46 0.15
47 0.15
48 0.15
5 -0.57
6 -0.65
7 -0.65
8 -0.47
9 -0.66

> <PUBCHEM_EFFECTIVE_ROTOR_COUNT>
6

> <PUBCHEM_PHARMACOPHORE_FEATURES>
12
1 10 donor
1 2 acceptor
1 3 acceptor
1 4 acceptor
1 5 acceptor
1 6 acceptor
1 7 acceptor
3 4 5 23 anion
6 24 25 26 27 28 29 rings
6 8 11 12 13 14 17 rings
6 8 17 18 19 21 22 rings
6 9 11 12 13 15 16 rings

> <PUBCHEM_HEAVY_ATOM_COUNT>
29

> <PUBCHEM_ATOM_DEF_STEREO_COUNT>
2

> <PUBCHEM_ATOM_UDEF_STEREO_COUNT>
0

> <PUBCHEM_BOND_DEF_STEREO_COUNT>
0

> <PUBCHEM_BOND_UDEF_STEREO_COUNT>
0

> <PUBCHEM_ISOTOPIC_ATOM_COUNT>
0

> <PUBCHEM_COMPONENT_COUNT>
1

> <PUBCHEM_CACTVS_TAUTO_COUNT>
1

> <PUBCHEM_CONFORMER_ID>
00B5141400000001

> <PUBCHEM_MMFF94_ENERGY>
73.4378

> <PUBCHEM_FEATURE_SELFOVERLAP>
62.558

> <PUBCHEM_SHAPE_FINGERPRINT>
10042902 136 10519686921644822857
11595378 159 18334285487934826248
11961588 58 18264756693721891429
12128747 34 18263929843861517622
12166972 35 17241608518689173631
12596602 18 17241325927453586792
12633257 1 16950003642704615902
12655364 131 16444724126258500850
13103583 49 15285646486302299696
13402501 40 18272650177396565488
13583140 156 18341901826561463602
13911987 19 16558753450804630326
14142880 1 17894630327825369855
14251751 93 18409445890548456225
14251757 17 18131074801124903544
14251764 38 18411421739135632736
14466204 15 18407757045647622368
14739800 52 18262503819612293434
14950920 106 14707508974319030933
15463212 79 18271518796980019366
15484559 13 14823240016431088416
16067690 210 18040987488477265104
17349148 13 17822295746672052338
19438510 23 18264488386930593057
21033648 144 18059579143623475966
21095088 737 18272927185807579069
21315764 268 18201154459838928680
22907989 373 17203042989926876283
22956985 138 16818564999380541899
23559900 14 16056057779011862310
2838139 119 18340758239688671140
328310 1195 17917990573338965608
341906 21 18260270754688727688
392239 28 17605300521666111443
469060 322 18043273369040352593
484985 159 8214148481979909389
497634 4 17131842005488603971
508706 21 18335423477911219992
5951187 136 17264968386462516861
9981440 41 18187366506685759691

> <PUBCHEM_SHAPE_MULTIPOLES>
550.5
12.92
3.33
1.87
17.48
3.38
-0.12
6.15
1.34
-4.57
-0.32
0.22
-0.51
2.08

> <PUBCHEM_SHAPE_SELFOVERLAP>
1189.936

> <PUBCHEM_SHAPE_VOLUME>
300

> <PUBCHEM_COORDINATE_TYPE>
2
5
10

$$$$
