11865938
  -OEChem-12032416123D

 66 70  0     1  0  0  0  0  0999 V2000
    0.7303    1.5875   -2.3316 O   0  0  0  0  0  0  0  0  0  0  0  0
   -1.9006    3.5678    2.3411 O   0  0  0  0  0  0  0  0  0  0  0  0
   -5.4994   -0.4426   -0.7305 O   0  0  0  0  0  0  0  0  0  0  0  0
    4.5820    0.4887   -0.7420 O   0  0  0  0  0  0  0  0  0  0  0  0
    2.2818   -1.6345    1.7894 O   0  0  0  0  0  0  0  0  0  0  0  0
   -0.9906    2.0043   -0.8305 N   0  0  0  0  0  0  0  0  0  0  0  0
    2.6997    1.7793   -0.3711 N   0  0  0  0  0  0  0  0  0  0  0  0
    0.1748    3.6421    1.4475 N   0  0  0  0  0  0  0  0  0  0  0  0
   -3.2110   -0.0786   -0.9575 N   0  0  0  0  0  0  0  0  0  0  0  0
    1.2895    1.9499   -0.0119 C   0  0  1  0  0  0  0  0  0  0  0  0
   -1.5199    2.0204    0.5375 C   0  0  2  0  0  0  0  0  0  0  0  0
    1.1742    3.4157    0.4261 C   0  0  2  0  0  0  0  0  0  0  0  0
   -3.2454    1.3626   -1.0329 C   0  0  1  0  0  0  0  0  0  0  0  0
   -3.0489    1.9993    0.3400 C   0  0  0  0  0  0  0  0  0  0  0  0
   -2.0605    1.9091   -1.8160 C   0  0  0  0  0  0  0  0  0  0  0  0
    2.5925    3.7632    0.8700 C   0  0  0  0  0  0  0  0  0  0  0  0
    0.3392    1.8018   -1.1855 C   0  0  0  0  0  0  0  0  0  0  0  0
    3.4386    3.0151   -0.1482 C   0  0  0  0  0  0  0  0  0  0  0  0
   -1.1225    3.1809    1.4611 C   0  0  0  0  0  0  0  0  0  0  0  0
   -4.0313   -2.3247   -0.7867 C   0  0  0  0  0  0  0  0  0  0  0  0
   -4.3467   -0.8590   -0.8121 C   0  0  0  0  0  0  0  0  0  0  0  0
    3.3561    0.5916   -0.6565 C   0  0  0  0  0  0  0  0  0  0  0  0
   -5.2964   -3.1510   -0.6014 C   0  0  0  0  0  0  0  0  0  0  0  0
   -3.1750   -2.6998    0.4132 C   0  0  0  0  0  0  0  0  0  0  0  0
   -5.4956   -3.2651    0.9091 C   0  0  0  0  0  0  0  0  0  0  0  0
   -4.1665   -2.8836    1.5564 C   0  0  0  0  0  0  0  0  0  0  0  0
    2.4840   -0.6202   -0.8741 C   0  0  0  0  0  0  0  0  0  0  0  0
    3.1848   -1.8622   -0.4194 C   0  0  0  0  0  0  0  0  0  0  0  0
    3.0510   -2.3122    0.8921 C   0  0  0  0  0  0  0  0  0  0  0  0
    3.9750   -2.5654   -1.3259 C   0  0  0  0  0  0  0  0  0  0  0  0
    3.7111   -3.4718    1.2992 C   0  0  0  0  0  0  0  0  0  0  0  0
    4.6350   -3.7248   -0.9186 C   0  0  0  0  0  0  0  0  0  0  0  0
    4.5032   -4.1780    0.3939 C   0  0  0  0  0  0  0  0  0  0  0  0
    0.9075   -2.0056    1.8753 C   0  0  0  0  0  0  0  0  0  0  0  0
    1.0557    1.2397    0.7876 H   0  0  0  0  0  0  0  0  0  0  0  0
   -1.1974    1.0904    1.0226 H   0  0  0  0  0  0  0  0  0  0  0  0
    0.9050    4.0674   -0.4171 H   0  0  0  0  0  0  0  0  0  0  0  0
   -4.1971    1.6634   -1.4830 H   0  0  0  0  0  0  0  0  0  0  0  0
   -3.5556    1.4601    1.1478 H   0  0  0  0  0  0  0  0  0  0  0  0
   -3.4487    3.0216    0.3191 H   0  0  0  0  0  0  0  0  0  0  0  0
   -2.2583    2.9281   -2.1672 H   0  0  0  0  0  0  0  0  0  0  0  0
   -1.7699    1.2889   -2.6696 H   0  0  0  0  0  0  0  0  0  0  0  0
    2.7879    4.8396    0.8714 H   0  0  0  0  0  0  0  0  0  0  0  0
    2.7848    3.3814    1.8808 H   0  0  0  0  0  0  0  0  0  0  0  0
    3.4832    3.5509   -1.1028 H   0  0  0  0  0  0  0  0  0  0  0  0
    4.4562    2.8263    0.2050 H   0  0  0  0  0  0  0  0  0  0  0  0
    0.3850    4.3708    2.1231 H   0  0  0  0  0  0  0  0  0  0  0  0
   -2.3021   -0.5305   -1.0005 H   0  0  0  0  0  0  0  0  0  0  0  0
   -3.5332   -2.5771   -1.7300 H   0  0  0  0  0  0  0  0  0  0  0  0
   -5.1269   -4.1567   -1.0074 H   0  0  0  0  0  0  0  0  0  0  0  0
   -6.1845   -2.7549   -1.1037 H   0  0  0  0  0  0  0  0  0  0  0  0
   -2.6738   -3.6560    0.2166 H   0  0  0  0  0  0  0  0  0  0  0  0
   -2.4003   -1.9738    0.6764 H   0  0  0  0  0  0  0  0  0  0  0  0
   -5.7992   -4.2802    1.1860 H   0  0  0  0  0  0  0  0  0  0  0  0
   -6.2860   -2.5860    1.2480 H   0  0  0  0  0  0  0  0  0  0  0  0
   -4.2826   -1.9428    2.1076 H   0  0  0  0  0  0  0  0  0  0  0  0
   -3.8255   -3.6404    2.2698 H   0  0  0  0  0  0  0  0  0  0  0  0
    1.5120   -0.5405   -0.3887 H   0  0  0  0  0  0  0  0  0  0  0  0
    2.2716   -0.6826   -1.9489 H   0  0  0  0  0  0  0  0  0  0  0  0
    4.0881   -2.2232   -2.3512 H   0  0  0  0  0  0  0  0  0  0  0  0
    3.6136   -3.8305    2.3204 H   0  0  0  0  0  0  0  0  0  0  0  0
    5.2521   -4.2745   -1.6233 H   0  0  0  0  0  0  0  0  0  0  0  0
    5.0173   -5.0806    0.7110 H   0  0  0  0  0  0  0  0  0  0  0  0
    0.4655   -2.1726    0.8877 H   0  0  0  0  0  0  0  0  0  0  0  0
    0.8096   -2.9131    2.4789 H   0  0  0  0  0  0  0  0  0  0  0  0
    0.3635   -1.1957    2.3692 H   0  0  0  0  0  0  0  0  0  0  0  0
  1 17  2  0  0  0  0
  2 19  2  0  0  0  0
  3 21  2  0  0  0  0
  4 22  2  0  0  0  0
  5 29  1  0  0  0  0
  5 34  1  0  0  0  0
  6 11  1  0  0  0  0
  6 15  1  0  0  0  0
  6 17  1  0  0  0  0
  7 10  1  0  0  0  0
  7 18  1  0  0  0  0
  7 22  1  0  0  0  0
  8 12  1  0  0  0  0
  8 19  1  0  0  0  0
  8 47  1  0  0  0  0
  9 13  1  0  0  0  0
  9 21  1  0  0  0  0
  9 48  1  0  0  0  0
 10 12  1  0  0  0  0
 10 17  1  0  0  0  0
 10 35  1  0  0  0  0
 11 14  1  0  0  0  0
 11 19  1  0  0  0  0
 11 36  1  0  0  0  0
 12 16  1  0  0  0  0
 12 37  1  0  0  0  0
 13 14  1  0  0  0  0
 13 15  1  0  0  0  0
 13 38  1  0  0  0  0
 14 39  1  0  0  0  0
 14 40  1  0  0  0  0
 15 41  1  0  0  0  0
 15 42  1  0  0  0  0
 16 18  1  0  0  0  0
 16 43  1  0  0  0  0
 16 44  1  0  0  0  0
 18 45  1  0  0  0  0
 18 46  1  0  0  0  0
 20 21  1  0  0  0  0
 20 23  1  0  0  0  0
 20 24  1  0  0  0  0
 20 49  1  0  0  0  0
 22 27  1  0  0  0  0
 23 25  1  0  0  0  0
 23 50  1  0  0  0  0
 23 51  1  0  0  0  0
 24 26  1  0  0  0  0
 24 52  1  0  0  0  0
 24 53  1  0  0  0  0
 25 26  1  0  0  0  0
 25 54  1  0  0  0  0
 25 55  1  0  0  0  0
 26 56  1  0  0  0  0
 26 57  1  0  0  0  0
 27 28  1  0  0  0  0
 27 58  1  0  0  0  0
 27 59  1  0  0  0  0
 28 29  1  0  0  0  0
 28 30  2  0  0  0  0
 29 31  2  0  0  0  0
 30 32  1  0  0  0  0
 30 60  1  0  0  0  0
 31 33  1  0  0  0  0
 31 61  1  0  0  0  0
 32 33  2  0  0  0  0
 32 62  1  0  0  0  0
 33 63  1  0  0  0  0
 34 64  1  0  0  0  0
 34 65  1  0  0  0  0
 34 66  1  0  0  0  0
M  END
> <PUBCHEM_COMPOUND_CID>
11865938

> <PUBCHEM_CONFORMER_RMSD>
1

> <PUBCHEM_CONFORMER_DIVERSEORDER>
2
15
67
37
98
157
60
135
183
224
90
17
10
65
51
218
142
205
43
33
201
166
189
58
194
111
82
213
181
4
154
152
139
52
12
146
54
217
50
38
84
192
219
126
39
35
104
160
103
163
63
94
95
150
165
24
93
176
59
91
32
127
171
9
212
86
131
89
69
113
62
198
105
177
108
64
99
221
216
155
173
107
211
85
7
11
178
133
199
114
222
148
18
145
44
83
13
53
46
117
128
22
25
204
23
118
87
208
175
68
30
70
45
130
147
76
168
174
169
159
172
72
36
132
188
81
164
49
124
185
56
77
137
80
29
75
191
214
158
16
48
186
101
116
202
28
149
167
26
162
88
61
79
14
41
141
209
71
223
96
102
3
66
129
182
136
134
190
122
143
161
112
123
8
31
5
170
210
6
125
193
220
27
115
197
20
21
110
73
57
196
109
121
34
100
97
195
180
153
215
207
179
200
203
187
78
120
184
206
1
55
151
47
40
74
92
156
119
42
144
138
140
106
19

> <PUBCHEM_MMFF94_PARTIAL_CHARGES>
34
1 -0.57
10 0.36
11 0.36
12 0.3
13 0.3
15 0.3
17 0.57
18 0.3
19 0.57
2 -0.57
20 0.06
21 0.57
22 0.57
27 0.2
28 -0.14
29 0.08
3 -0.57
30 -0.15
31 -0.15
32 -0.15
33 -0.15
34 0.28
4 -0.57
47 0.37
48 0.37
5 -0.36
6 -0.66
60 0.15
61 0.15
62 0.15
63 0.15
7 -0.66
8 -0.73
9 -0.73

> <PUBCHEM_EFFECTIVE_ROTOR_COUNT>
9.4

> <PUBCHEM_PHARMACOPHORE_FEATURES>
12
1 1 acceptor
1 2 acceptor
1 3 acceptor
1 4 acceptor
1 5 acceptor
1 8 donor
1 9 donor
5 20 23 24 25 26 rings
5 6 11 13 14 15 rings
5 7 10 12 16 18 rings
6 28 29 30 31 32 33 rings
7 6 8 10 11 12 17 19 rings

> <PUBCHEM_HEAVY_ATOM_COUNT>
34

> <PUBCHEM_ATOM_DEF_STEREO_COUNT>
4

> <PUBCHEM_ATOM_UDEF_STEREO_COUNT>
0

> <PUBCHEM_BOND_DEF_STEREO_COUNT>
0

> <PUBCHEM_BOND_UDEF_STEREO_COUNT>
0

> <PUBCHEM_ISOTOPIC_ATOM_COUNT>
0

> <PUBCHEM_COMPONENT_COUNT>
1

> <PUBCHEM_CACTVS_TAUTO_COUNT>
4

> <PUBCHEM_CONFORMER_ID>
00B50F5200000002

> <PUBCHEM_MMFF94_ENERGY>
110.4902

> <PUBCHEM_FEATURE_SELFOVERLAP>
60.982

> <PUBCHEM_SHAPE_FINGERPRINT>
10928967 22 17755871809776106850
1100329 8 18267303123775666297
11285246 1 18040439845639294907
11513181 2 18268701874143902287
13383661 66 17902817471088067610
13402501 40 17901102237570394203
14040222 380 17766302129101628471
14508693 111 18263073319744944530
14747282 140 16029278837387223303
14856354 85 17910957938138635334
14863182 85 17902233643319634908
14904385 45 18411427202386410907
15001296 14 18261108578291230907
17909252 39 18338238270643869554
19311894 1 17977669714546714402
19319366 153 17981322610196659836
20028762 73 17328021487338635903
20775530 9 18334863805060043487
22440779 20 16052690928262367806
238918 7 17831013890200826546
25222932 49 17913768585799894015
3044373 233 18263378038958145123
3737641 26 18337398257035254507
4394409 98 17251437813444810461
463206 1 18190743016320238986
6376802 90 18189314810798730836
6422251 121 18337956821769434219
6433294 58 18337949120491846847
7970288 3 17978789013341900926
86090 222 17831303066106789331
9896288 288 17047402501345611648

> <PUBCHEM_SHAPE_MULTIPOLES>
650.43
11.24
6.92
1.8
7.32
0.47
0.28
14.21
-1.45
-2.92
2.49
0.25
-0.36
0.23

> <PUBCHEM_SHAPE_SELFOVERLAP>
1401.28

> <PUBCHEM_SHAPE_VOLUME>
354.2

> <PUBCHEM_COORDINATE_TYPE>
2
5
10

$$$$
