45783974
  -OEChem-12032416253D

 69 71  0     1  0  0  0  0  0999 V2000
   -0.8339    1.8051   -0.4597 O   0  0  0  0  0  0  0  0  0  0  0  0
   -0.9322   -3.5607    0.0133 O   0  0  0  0  0  0  0  0  0  0  0  0
    2.6169   -2.7824    0.6515 N   0  0  2  0  0  0  0  0  0  0  0  0
    0.3131    1.9778    1.4532 N   0  0  0  0  0  0  0  0  0  0  0  0
   -0.9195    1.4228    1.7427 N   0  0  0  0  0  0  0  0  0  0  0  0
   -6.7070   -0.6016   -0.5968 N   0  0  0  0  0  0  0  0  0  0  0  0
    3.5412   -0.4609   -0.8721 C   0  0  1  0  0  0  0  0  0  0  0  0
    3.7030   -0.5801    0.6612 C   0  0  1  0  0  0  0  0  0  0  0  0
    2.4434    0.5544   -1.2197 C   0  0  0  0  0  0  0  0  0  0  0  0
    2.6929    1.9545   -0.6193 C   0  0  2  0  0  0  0  0  0  0  0  0
    4.8695   -0.0951   -1.5481 C   0  0  0  0  0  0  0  0  0  0  0  0
    3.2578    1.9050    0.7923 C   0  0  0  0  0  0  0  0  0  0  0  0
    3.6929    0.7605    1.3506 C   0  0  0  0  0  0  0  0  0  0  0  0
    2.6196   -1.4714    1.2771 C   0  0  0  0  0  0  0  0  0  0  0  0
    1.3949    2.7662   -0.7142 C   0  0  0  0  0  0  0  0  0  0  0  0
    4.6210    0.4391   -2.9550 C   0  0  0  0  0  0  0  0  0  0  0  0
    5.7986   -1.3044   -1.5849 C   0  0  0  0  0  0  0  0  0  0  0  0
    3.3733    3.2049    1.5402 C   0  0  0  0  0  0  0  0  0  0  0  0
    0.3188    2.1841    0.1569 C   0  0  0  0  0  0  0  0  0  0  0  0
    1.3162   -3.4373    0.8199 C   0  0  0  0  0  0  0  0  0  0  0  0
    3.6802   -3.6260    1.2053 C   0  0  0  0  0  0  0  0  0  0  0  0
    0.3057   -2.8872   -0.1740 C   0  0  0  0  0  0  0  0  0  0  0  0
   -1.5549    1.3407    0.5972 C   0  0  0  0  0  0  0  0  0  0  0  0
   -2.8664    0.8464    0.2933 C   0  0  0  0  0  0  0  0  0  0  0  0
   -3.6782    0.3497    1.3131 C   0  0  0  0  0  0  0  0  0  0  0  0
   -3.3303    0.8627   -1.0221 C   0  0  0  0  0  0  0  0  0  0  0  0
   -4.9539   -0.1308    1.0174 C   0  0  0  0  0  0  0  0  0  0  0  0
   -4.6059    0.3820   -1.3178 C   0  0  0  0  0  0  0  0  0  0  0  0
   -5.4177   -0.1147   -0.2980 C   0  0  0  0  0  0  0  0  0  0  0  0
   -7.2015   -0.5824   -1.9592 C   0  0  0  0  0  0  0  0  0  0  0  0
   -7.5577   -1.1209    0.4556 C   0  0  0  0  0  0  0  0  0  0  0  0
    3.2227   -1.4186   -1.3025 H   0  0  0  0  0  0  0  0  0  0  0  0
    4.6786   -1.0189    0.8928 H   0  0  0  0  0  0  0  0  0  0  0  0
    2.2539    0.6272   -2.2963 H   0  0  0  0  0  0  0  0  0  0  0  0
    1.5048    0.1412   -0.8302 H   0  0  0  0  0  0  0  0  0  0  0  0
    3.4395    2.4754   -1.2308 H   0  0  0  0  0  0  0  0  0  0  0  0
    5.3821    0.6964   -0.9872 H   0  0  0  0  0  0  0  0  0  0  0  0
    4.0887    0.7774    2.3639 H   0  0  0  0  0  0  0  0  0  0  0  0
    1.6544   -0.9648    1.1609 H   0  0  0  0  0  0  0  0  0  0  0  0
    2.7618   -1.5545    2.3644 H   0  0  0  0  0  0  0  0  0  0  0  0
    1.0503    2.7934   -1.7556 H   0  0  0  0  0  0  0  0  0  0  0  0
    1.5590    3.8094   -0.4206 H   0  0  0  0  0  0  0  0  0  0  0  0
    4.1744    1.4353   -2.9751 H   0  0  0  0  0  0  0  0  0  0  0  0
    5.5741    0.5383   -3.4889 H   0  0  0  0  0  0  0  0  0  0  0  0
    4.0007   -0.2452   -3.5448 H   0  0  0  0  0  0  0  0  0  0  0  0
    6.7332   -1.0547   -2.0997 H   0  0  0  0  0  0  0  0  0  0  0  0
    6.0719   -1.6508   -0.5849 H   0  0  0  0  0  0  0  0  0  0  0  0
    5.3417   -2.1433   -2.1212 H   0  0  0  0  0  0  0  0  0  0  0  0
    2.3937    3.6081    1.8089 H   0  0  0  0  0  0  0  0  0  0  0  0
    3.9431    3.0935    2.4694 H   0  0  0  0  0  0  0  0  0  0  0  0
    3.8986    3.9454    0.9278 H   0  0  0  0  0  0  0  0  0  0  0  0
    0.9418   -3.3547    1.8491 H   0  0  0  0  0  0  0  0  0  0  0  0
    1.3999   -4.5155    0.6256 H   0  0  0  0  0  0  0  0  0  0  0  0
    4.6708   -3.1913    1.0425 H   0  0  0  0  0  0  0  0  0  0  0  0
    3.5511   -3.8015    2.2797 H   0  0  0  0  0  0  0  0  0  0  0  0
    3.6955   -4.5991    0.7009 H   0  0  0  0  0  0  0  0  0  0  0  0
    0.6376   -3.0561   -1.2041 H   0  0  0  0  0  0  0  0  0  0  0  0
    0.1191   -1.8189   -0.0381 H   0  0  0  0  0  0  0  0  0  0  0  0
   -1.5576   -3.1941   -0.6349 H   0  0  0  0  0  0  0  0  0  0  0  0
   -3.3366    0.3275    2.3452 H   0  0  0  0  0  0  0  0  0  0  0  0
   -2.7267    1.2416   -1.8430 H   0  0  0  0  0  0  0  0  0  0  0  0
   -5.5466   -0.5068    1.8455 H   0  0  0  0  0  0  0  0  0  0  0  0
   -4.9207    0.4155   -2.3561 H   0  0  0  0  0  0  0  0  0  0  0  0
   -8.2164   -0.9899   -2.0274 H   0  0  0  0  0  0  0  0  0  0  0  0
   -6.5752   -1.1960   -2.6164 H   0  0  0  0  0  0  0  0  0  0  0  0
   -7.2504    0.4408   -2.3483 H   0  0  0  0  0  0  0  0  0  0  0  0
   -8.5228   -1.4622    0.0648 H   0  0  0  0  0  0  0  0  0  0  0  0
   -7.7792   -0.3500    1.2021 H   0  0  0  0  0  0  0  0  0  0  0  0
   -7.0977   -1.9862    0.9459 H   0  0  0  0  0  0  0  0  0  0  0  0
  1 19  1  0  0  0  0
  1 23  1  0  0  0  0
  2 22  1  0  0  0  0
  2 59  1  0  0  0  0
  3 14  1  0  0  0  0
  3 20  1  0  0  0  0
  3 21  1  0  0  0  0
  4  5  1  0  0  0  0
  4 19  2  0  0  0  0
  5 23  2  0  0  0  0
  6 29  1  0  0  0  0
  6 30  1  0  0  0  0
  6 31  1  0  0  0  0
  7  8  1  0  0  0  0
  7  9  1  0  0  0  0
  7 11  1  0  0  0  0
  7 32  1  0  0  0  0
  8 13  1  0  0  0  0
  8 14  1  0  0  0  0
  8 33  1  0  0  0  0
  9 10  1  0  0  0  0
  9 34  1  0  0  0  0
  9 35  1  0  0  0  0
 10 12  1  0  0  0  0
 10 15  1  0  0  0  0
 10 36  1  0  0  0  0
 11 16  1  0  0  0  0
 11 17  1  0  0  0  0
 11 37  1  0  0  0  0
 12 13  2  0  0  0  0
 12 18  1  0  0  0  0
 13 38  1  0  0  0  0
 14 39  1  0  0  0  0
 14 40  1  0  0  0  0
 15 19  1  0  0  0  0
 15 41  1  0  0  0  0
 15 42  1  0  0  0  0
 16 43  1  0  0  0  0
 16 44  1  0  0  0  0
 16 45  1  0  0  0  0
 17 46  1  0  0  0  0
 17 47  1  0  0  0  0
 17 48  1  0  0  0  0
 18 49  1  0  0  0  0
 18 50  1  0  0  0  0
 18 51  1  0  0  0  0
 20 22  1  0  0  0  0
 20 52  1  0  0  0  0
 20 53  1  0  0  0  0
 21 54  1  0  0  0  0
 21 55  1  0  0  0  0
 21 56  1  0  0  0  0
 22 57  1  0  0  0  0
 22 58  1  0  0  0  0
 23 24  1  0  0  0  0
 24 25  2  0  0  0  0
 24 26  1  0  0  0  0
 25 27  1  0  0  0  0
 25 60  1  0  0  0  0
 26 28  2  0  0  0  0
 26 61  1  0  0  0  0
 27 29  2  0  0  0  0
 27 62  1  0  0  0  0
 28 29  1  0  0  0  0
 28 63  1  0  0  0  0
 30 64  1  0  0  0  0
 30 65  1  0  0  0  0
 30 66  1  0  0  0  0
 31 67  1  0  0  0  0
 31 68  1  0  0  0  0
 31 69  1  0  0  0  0
M  END
> <PUBCHEM_COMPOUND_CID>
45783974

> <PUBCHEM_CONFORMER_RMSD>
1

> <PUBCHEM_CONFORMER_DIVERSEORDER>
9
59
16
129
106
26
112
46
64
87
157
33
57
21
156
36
124
147
11
90
62
43
32
139
17
115
51
22
24
126
76
47
81
134
65
141
27
128
34
83
93
171
54
37
44
53
10
49
86
15
173
101
160
155
23
150
14
102
50
52
20
68
42
130
80
67
113
88
55
149
136
71
127
111
165
45
164
29
117
38
145
104
95
97
56
69
119
167
142
61
132
78
35
79
114
125
146
8
1
131
151
98
140
148
137
12
96
162
13
161
19
77
118
172
85
7
2
48
158
154
18
40
108
66
135
28
110
58
99
152
5
163
103
107
144
91
143
82
94
25
39
92
174
109
166
4
121
31
84
41
159
153
75
116
73
100
133
60
123
72
138
30
89
3
70
6
74
168
169
120
122
63
105
170

> <PUBCHEM_MMFF94_PARTIAL_CHARGES>
32
1 -0.28
10 0.14
12 -0.28
13 -0.29
14 0.27
15 0.18
18 0.14
19 0.3
2 -0.68
20 0.27
21 0.27
22 0.28
23 0.43
24 0.05
25 -0.15
26 -0.15
27 -0.15
28 -0.15
29 0.1
3 -0.81
30 0.37
31 0.37
38 0.15
4 -0.34
5 -0.34
59 0.4
6 -0.84
60 0.15
61 0.15
62 0.15
63 0.15
8 0.14

> <PUBCHEM_EFFECTIVE_ROTOR_COUNT>
9.8

> <PUBCHEM_PHARMACOPHORE_FEATURES>
8
1 2 acceptor
1 2 donor
1 3 cation
1 6 cation
3 11 16 17 hydrophobe
5 1 4 5 19 23 rings
6 24 25 26 27 28 29 rings
6 7 8 9 10 12 13 rings

> <PUBCHEM_HEAVY_ATOM_COUNT>
31

> <PUBCHEM_ATOM_DEF_STEREO_COUNT>
3

> <PUBCHEM_ATOM_UDEF_STEREO_COUNT>
0

> <PUBCHEM_BOND_DEF_STEREO_COUNT>
0

> <PUBCHEM_BOND_UDEF_STEREO_COUNT>
0

> <PUBCHEM_ISOTOPIC_ATOM_COUNT>
0

> <PUBCHEM_COMPONENT_COUNT>
1

> <PUBCHEM_CACTVS_TAUTO_COUNT>
1

> <PUBCHEM_CONFORMER_ID>
02BA9BA600000009

> <PUBCHEM_MMFF94_ENERGY>
80.057

> <PUBCHEM_FEATURE_SELFOVERLAP>
40.596

> <PUBCHEM_SHAPE_FINGERPRINT>
10316853 100 18335984254632340595
11069576 57 18116155467829182942
12596602 18 17418374718702066737
12597179 24 18056475291387155600
12633257 1 11023814038288854640
13150687 139 17750539402436813028
13533116 47 17917992823495932697
1361 2 18335979852617507171
14931854 50 18337121076799194966
15001296 14 18200303433528225375
15183329 4 16443059492188787405
16114785 44 16550283020248318736
17134984 74 18336822104410549823
17492 54 18187374220098564274
19315092 285 18129933494943361648
20028762 73 17989208131228436702
20775438 99 18058719351010338686
20775530 9 17830740854972236602
21285901 2 17385997352227499373
21304303 94 18337967778536649852
21703447 108 18272642459077025896
23559900 14 17895204354020049077
239999 70 18131350830225552940
3004659 81 18272936029113612669
3052486 1 18262523718908068170
3298306 158 18187644734698595739
338550 245 18191581067872428871
345986 75 17988358166053957713
404807 78 17677911203912097139
4340502 62 18270110352601636353
463206 1 18270110335970081339
484989 97 18264502847779789739
513532 50 18060137631190148966
57359948 33 17531513322322698605
59682541 52 18187070751285297645
6669772 16 18339637966563435400
70251023 43 17988653956314940336

> <PUBCHEM_SHAPE_MULTIPOLES>
606.3
15.48
3.86
1.98
28.85
2.7
-0.8
4.51
-6.28
-4.56
1.59
-1.51
-0.32
-0.25

> <PUBCHEM_SHAPE_SELFOVERLAP>
1259.98

> <PUBCHEM_SHAPE_VOLUME>
347.1

> <PUBCHEM_COORDINATE_TYPE>
2
5
10

$$$$
