51137813
  -OEChem-12032416203D

 43 46  0     1  0  0  0  0  0999 V2000
   -0.8566    1.2107   -0.2576 O   0  0  0  0  0  0  0  0  0  0  0  0
    2.6908   -0.4468    2.4770 O   0  0  0  0  0  0  0  0  0  0  0  0
    2.1561    1.1114    0.8399 N   0  0  0  0  0  0  0  0  0  0  0  0
   -1.4027    3.2221   -1.0706 N   0  0  0  0  0  0  0  0  0  0  0  0
   -2.5572    2.4658   -0.9905 N   0  0  0  0  0  0  0  0  0  0  0  0
    4.1419   -0.6437   -0.4838 N   0  0  0  0  0  0  0  0  0  0  0  0
    1.0478    2.7427   -0.4920 C   0  0  1  0  0  0  0  0  0  0  0  0
    1.3799    3.3391    0.8846 C   0  0  0  0  0  0  0  0  0  0  0  0
    1.9944    1.5354   -0.5518 C   0  0  0  0  0  0  0  0  0  0  0  0
    1.6474    2.1198    1.7566 C   0  0  0  0  0  0  0  0  0  0  0  0
   -0.4360    2.4497   -0.6326 C   0  0  0  0  0  0  0  0  0  0  0  0
    2.6407   -0.1041    1.2974 C   0  0  0  0  0  0  0  0  0  0  0  0
    3.1192   -1.0664    0.2927 C   0  0  0  0  0  0  0  0  0  0  0  0
   -2.1909    1.3001   -0.5111 C   0  0  0  0  0  0  0  0  0  0  0  0
   -2.9650    0.1289   -0.2185 C   0  0  0  0  0  0  0  0  0  0  0  0
    2.5284   -2.3152    0.1855 C   0  0  0  0  0  0  0  0  0  0  0  0
   -4.3412    0.1279   -0.4459 C   0  0  0  0  0  0  0  0  0  0  0  0
   -2.3418   -1.0095    0.2929 C   0  0  0  0  0  0  0  0  0  0  0  0
    3.0192   -3.1862   -0.7809 C   0  0  0  0  0  0  0  0  0  0  0  0
   -4.4711   -2.1495    0.3499 C   0  0  0  0  0  0  0  0  0  0  0  0
   -5.0943   -1.0112   -0.1617 C   0  0  0  0  0  0  0  0  0  0  0  0
   -3.0949   -2.1487    0.5771 C   0  0  0  0  0  0  0  0  0  0  0  0
    4.5921   -1.5176   -1.4119 C   0  0  0  0  0  0  0  0  0  0  0  0
    4.0706   -2.7876   -1.5987 C   0  0  0  0  0  0  0  0  0  0  0  0
   -5.2766   -3.3673    0.6541 C   0  0  0  0  0  0  0  0  0  0  0  0
    1.3012    3.4526   -1.2888 H   0  0  0  0  0  0  0  0  0  0  0  0
    2.2978    3.9356    0.8071 H   0  0  0  0  0  0  0  0  0  0  0  0
    0.5948    3.9798    1.2979 H   0  0  0  0  0  0  0  0  0  0  0  0
    1.6254    0.7154   -1.1750 H   0  0  0  0  0  0  0  0  0  0  0  0
    2.9835    1.8413   -0.9112 H   0  0  0  0  0  0  0  0  0  0  0  0
    2.3711    2.3139    2.5540 H   0  0  0  0  0  0  0  0  0  0  0  0
    0.7264    1.7328    2.2065 H   0  0  0  0  0  0  0  0  0  0  0  0
    1.7064   -2.6149    0.8269 H   0  0  0  0  0  0  0  0  0  0  0  0
   -4.8479    1.0036   -0.8444 H   0  0  0  0  0  0  0  0  0  0  0  0
   -1.2719   -1.0472    0.4827 H   0  0  0  0  0  0  0  0  0  0  0  0
    2.5826   -4.1736   -0.8969 H   0  0  0  0  0  0  0  0  0  0  0  0
   -6.1656   -1.0004   -0.3447 H   0  0  0  0  0  0  0  0  0  0  0  0
   -2.5979   -3.0302    0.9736 H   0  0  0  0  0  0  0  0  0  0  0  0
    5.4126   -1.1583   -2.0243 H   0  0  0  0  0  0  0  0  0  0  0  0
    4.4689   -3.4499   -2.3588 H   0  0  0  0  0  0  0  0  0  0  0  0
   -6.2976   -3.1022    0.9490 H   0  0  0  0  0  0  0  0  0  0  0  0
   -4.8402   -3.9325    1.4847 H   0  0  0  0  0  0  0  0  0  0  0  0
   -5.3229   -4.0165   -0.2259 H   0  0  0  0  0  0  0  0  0  0  0  0
  1 11  1  0  0  0  0
  1 14  1  0  0  0  0
  2 12  2  0  0  0  0
  3  9  1  0  0  0  0
  3 10  1  0  0  0  0
  3 12  1  0  0  0  0
  4  5  1  0  0  0  0
  4 11  2  0  0  0  0
  5 14  2  0  0  0  0
  6 13  1  0  0  0  0
  6 23  2  0  0  0  0
  7  8  1  0  0  0  0
  7  9  1  0  0  0  0
  7 11  1  0  0  0  0
  7 26  1  0  0  0  0
  8 10  1  0  0  0  0
  8 27  1  0  0  0  0
  8 28  1  0  0  0  0
  9 29  1  0  0  0  0
  9 30  1  0  0  0  0
 10 31  1  0  0  0  0
 10 32  1  0  0  0  0
 12 13  1  0  0  0  0
 13 16  2  0  0  0  0
 14 15  1  0  0  0  0
 15 17  2  0  0  0  0
 15 18  1  0  0  0  0
 16 19  1  0  0  0  0
 16 33  1  0  0  0  0
 17 21  1  0  0  0  0
 17 34  1  0  0  0  0
 18 22  2  0  0  0  0
 18 35  1  0  0  0  0
 19 24  2  0  0  0  0
 19 36  1  0  0  0  0
 20 21  2  0  0  0  0
 20 22  1  0  0  0  0
 20 25  1  0  0  0  0
 21 37  1  0  0  0  0
 22 38  1  0  0  0  0
 23 24  1  0  0  0  0
 23 39  1  0  0  0  0
 24 40  1  0  0  0  0
 25 41  1  0  0  0  0
 25 42  1  0  0  0  0
 25 43  1  0  0  0  0
M  END
> <PUBCHEM_COMPOUND_CID>
51137813

> <PUBCHEM_CONFORMER_RMSD>
0.8

> <PUBCHEM_CONFORMER_DIVERSEORDER>
1
74
5
68
8
7
55
61
30
57
11
40
64
17
36
48
71
37
20
24
58
23
31
52
19
12
35
22
18
47
59
15
39
33
38
29
51
27
65
10
43
54
41
14
25
28
60
49
70
44
66
46
4
63
21
42
6
26
67
32
62
72
50
73
13
45
34
2
56
69
9
53
3
16

> <PUBCHEM_MMFF94_PARTIAL_CHARGES>
32
1 -0.28
10 0.3
11 0.3
12 0.54
13 0.4
14 0.43
15 0.05
16 -0.15
17 -0.15
18 -0.15
19 -0.15
2 -0.57
20 -0.14
21 -0.15
22 -0.15
23 0.16
24 -0.15
25 0.14
3 -0.66
33 0.15
34 0.15
35 0.15
36 0.15
37 0.15
38 0.15
39 0.15
4 -0.34
40 0.15
5 -0.34
6 -0.62
7 0.18
9 0.3

> <PUBCHEM_EFFECTIVE_ROTOR_COUNT>
5

> <PUBCHEM_PHARMACOPHORE_FEATURES>
6
1 2 acceptor
1 6 acceptor
5 1 4 5 11 14 rings
5 3 7 8 9 10 rings
6 15 17 18 20 21 22 rings
6 6 13 16 19 23 24 rings

> <PUBCHEM_HEAVY_ATOM_COUNT>
25

> <PUBCHEM_ATOM_DEF_STEREO_COUNT>
1

> <PUBCHEM_ATOM_UDEF_STEREO_COUNT>
0

> <PUBCHEM_BOND_DEF_STEREO_COUNT>
0

> <PUBCHEM_BOND_UDEF_STEREO_COUNT>
0

> <PUBCHEM_ISOTOPIC_ATOM_COUNT>
0

> <PUBCHEM_COMPONENT_COUNT>
1

> <PUBCHEM_CACTVS_TAUTO_COUNT>
1

> <PUBCHEM_CONFORMER_ID>
030C4D1500000001

> <PUBCHEM_MMFF94_ENERGY>
59.9805

> <PUBCHEM_FEATURE_SELFOVERLAP>
30.449

> <PUBCHEM_SHAPE_FINGERPRINT>
10928967 22 18187085014476490891
114674 6 18336542840825188250
12553582 1 18261390018707561329
12712778 12 17400056601459806034
13135754 10 16484464771896498096
13150687 139 17246692746899442356
13402501 40 18409165549611910210
13533116 47 18201157771574913131
1361 2 17978227485223348275
13631057 29 18268438936825731222
13785724 45 18264503922201575831
13911882 115 18343860018278739930
13989917 61 17905615750358051371
14251740 57 18268996569224907427
14251757 5 18120664534516696396
14251764 30 17202780185252448222
14363568 33 18272375316885164068
14681488 357 18340211889826443183
14863182 85 17974290125082456060
14866123 147 18124320394216905993
15003188 105 17750783527244053435
15352361 1 18410295787261525167
15484559 13 16375796000270094021
15664445 248 17242175871074206189
15927050 60 16318374129964063501
17859628 70 18198064870328804205
17909252 39 18342471322418869134
1979834 28 18051692441095501299
20028762 73 17259908945215798679
20645477 70 18117555347936236425
20775530 9 18413389808771632291
21279426 13 18260816126084656151
22849339 104 18117275848713320821
23379529 103 18053674581520025534
23428019 142 16614790829798543734
23466295 7 17838914637329660126
23559900 14 18408601483241045397
3117164 225 18342190942780405097
329604 57 18409455752563416854
3421961 26 18340490074804937805
3737641 26 18343029890999350076
4280585 95 18116992192262124494
437795 139 17765746549960674206
46194498 28 18263086676633902382
5309563 4 18410578426586037527
6287921 2 18127408071316654939
6823239 73 18411978044700248754
9709674 26 18410562986167656029

> <PUBCHEM_SHAPE_MULTIPOLES>
482.83
10.39
4.74
1.45
7.82
0.57
-0.51
-11.13
0.91
-0.73
0.72
-1.48
0.11
2.87

> <PUBCHEM_SHAPE_SELFOVERLAP>
1058.07

> <PUBCHEM_SHAPE_VOLUME>
262.2

> <PUBCHEM_COORDINATE_TYPE>
2
5
10

$$$$
