7051087
  -OEChem-12032416123D

 69 72  0     1  0  0  0  0  0999 V2000
    0.6834    2.8445    0.2486 S   0  0  0  0  0  0  0  0  0  0  0  0
    5.6427    3.0838    0.2836 S   0  0  0  0  0  0  0  0  0  0  0  0
   -6.7971    0.6699   -0.7205 O   0  0  0  0  0  0  0  0  0  0  0  0
   -6.4297    2.3956    0.9017 O   0  0  0  0  0  0  0  0  0  0  0  0
    0.6913   -2.1182   -1.6056 O   0  0  0  0  0  0  0  0  0  0  0  0
    3.9570   -0.3762   -0.2769 O   0  0  0  0  0  0  0  0  0  0  0  0
    1.1296    0.3229   -0.1190 N   0  0  0  0  0  0  0  0  0  0  0  0
    0.9560   -3.7955   -0.0256 N   0  0  0  0  0  0  0  0  0  0  0  0
    3.0605    1.7560    0.0472 N   0  0  0  0  0  0  0  0  0  0  0  0
   -2.6592   -0.2728    0.2783 C   0  0  2  0  0  0  0  0  0  0  0  0
   -3.0267    1.1534   -0.3271 C   0  0  1  0  0  0  0  0  0  0  0  0
   -4.5493    1.5653   -0.3154 C   0  0  1  0  0  0  0  0  0  0  0  0
   -1.1920   -0.6583   -0.2238 C   0  0  1  0  0  0  0  0  0  0  0  0
   -3.6544   -1.3334   -0.2600 C   0  0  0  0  0  0  0  0  0  0  0  0
   -5.4052    0.3775   -0.8393 C   0  0  1  0  0  0  0  0  0  0  0  0
   -2.0733    2.2613    0.2084 C   0  0  0  0  0  0  0  0  0  0  0  0
   -5.1166   -0.9349   -0.1190 C   0  0  0  0  0  0  0  0  0  0  0  0
   -2.6966   -0.2968    1.8263 C   0  0  0  0  0  0  0  0  0  0  0  0
   -0.2404    0.4984   -0.0560 C   0  0  0  0  0  0  0  0  0  0  0  0
   -5.0694    2.0575    1.0533 C   0  0  0  0  0  0  0  0  0  0  0  0
   -4.7602    2.7546   -1.2948 C   0  0  0  0  0  0  0  0  0  0  0  0
   -0.6572    1.8024    0.1185 C   0  0  0  0  0  0  0  0  0  0  0  0
   -0.6254   -1.9455    0.3902 C   0  0  0  0  0  0  0  0  0  0  0  0
    0.3941   -2.6113   -0.5143 C   0  0  0  0  0  0  0  0  0  0  0  0
    1.7170    1.4895    0.0364 C   0  0  0  0  0  0  0  0  0  0  0  0
    0.5880   -4.3605    1.2706 C   0  0  0  0  0  0  0  0  0  0  0  0
    1.9511   -4.5548   -0.7729 C   0  0  0  0  0  0  0  0  0  0  0  0
    4.1166    0.8302   -0.1071 C   0  0  0  0  0  0  0  0  0  0  0  0
   -0.5801   -5.3170    1.1475 C   0  0  0  0  0  0  0  0  0  0  0  0
    3.3582   -4.1020   -0.4420 C   0  0  0  0  0  0  0  0  0  0  0  0
    5.4701    1.4046   -0.0041 C   0  0  0  0  0  0  0  0  0  0  0  0
    6.6883    0.7700   -0.1081 C   0  0  0  0  0  0  0  0  0  0  0  0
    7.7779    1.6743    0.0508 C   0  0  0  0  0  0  0  0  0  0  0  0
    7.3509    2.9655    0.2700 C   0  0  0  0  0  0  0  0  0  0  0  0
   -2.7852    1.0556   -1.3999 H   0  0  0  0  0  0  0  0  0  0  0  0
   -1.2819   -0.7989   -1.3114 H   0  0  0  0  0  0  0  0  0  0  0  0
   -3.5158   -2.2935    0.2498 H   0  0  0  0  0  0  0  0  0  0  0  0
   -3.4529   -1.5201   -1.3232 H   0  0  0  0  0  0  0  0  0  0  0  0
   -5.2034    0.2381   -1.9097 H   0  0  0  0  0  0  0  0  0  0  0  0
   -2.1927    3.1774   -0.3798 H   0  0  0  0  0  0  0  0  0  0  0  0
   -2.3039    2.5061    1.2506 H   0  0  0  0  0  0  0  0  0  0  0  0
   -5.4132   -0.8731    0.9338 H   0  0  0  0  0  0  0  0  0  0  0  0
   -5.7469   -1.7267   -0.5440 H   0  0  0  0  0  0  0  0  0  0  0  0
   -2.4124   -1.2810    2.2147 H   0  0  0  0  0  0  0  0  0  0  0  0
   -3.6888   -0.1087    2.2309 H   0  0  0  0  0  0  0  0  0  0  0  0
   -2.0118    0.4286    2.2743 H   0  0  0  0  0  0  0  0  0  0  0  0
   -4.5318    2.9462    1.3975 H   0  0  0  0  0  0  0  0  0  0  0  0
   -5.0129    1.2979    1.8287 H   0  0  0  0  0  0  0  0  0  0  0  0
   -4.2942    3.6741   -0.9257 H   0  0  0  0  0  0  0  0  0  0  0  0
   -5.8204    2.9764   -1.4605 H   0  0  0  0  0  0  0  0  0  0  0  0
   -4.3272    2.5347   -2.2776 H   0  0  0  0  0  0  0  0  0  0  0  0
   -1.4266   -2.6659    0.5555 H   0  0  0  0  0  0  0  0  0  0  0  0
   -0.1553   -1.7082    1.3508 H   0  0  0  0  0  0  0  0  0  0  0  0
   -7.2889   -0.0774   -1.1014 H   0  0  0  0  0  0  0  0  0  0  0  0
   -6.7472    2.7136    1.7640 H   0  0  0  0  0  0  0  0  0  0  0  0
    3.3003    2.7339    0.1888 H   0  0  0  0  0  0  0  0  0  0  0  0
    1.4555   -4.8873    1.6854 H   0  0  0  0  0  0  0  0  0  0  0  0
    0.3452   -3.5779    1.9918 H   0  0  0  0  0  0  0  0  0  0  0  0
    1.7740   -4.4002   -1.8432 H   0  0  0  0  0  0  0  0  0  0  0  0
    1.8268   -5.6244   -0.5730 H   0  0  0  0  0  0  0  0  0  0  0  0
   -0.8486   -5.7145    2.1314 H   0  0  0  0  0  0  0  0  0  0  0  0
   -0.3271   -6.1647    0.5022 H   0  0  0  0  0  0  0  0  0  0  0  0
   -1.4669   -4.8396    0.7223 H   0  0  0  0  0  0  0  0  0  0  0  0
    4.0892   -4.6794   -1.0162 H   0  0  0  0  0  0  0  0  0  0  0  0
    3.5802   -4.2328    0.6219 H   0  0  0  0  0  0  0  0  0  0  0  0
    3.4965   -3.0437   -0.6831 H   0  0  0  0  0  0  0  0  0  0  0  0
    6.8004   -0.2916   -0.2892 H   0  0  0  0  0  0  0  0  0  0  0  0
    8.8217    1.3920    0.0066 H   0  0  0  0  0  0  0  0  0  0  0  0
    7.9603    3.8450    0.4227 H   0  0  0  0  0  0  0  0  0  0  0  0
  1 22  1  0  0  0  0
  1 25  1  0  0  0  0
  2 31  1  0  0  0  0
  2 34  1  0  0  0  0
  3 15  1  0  0  0  0
  3 54  1  0  0  0  0
  4 20  1  0  0  0  0
  4 55  1  0  0  0  0
  5 24  2  0  0  0  0
  6 28  2  0  0  0  0
  7 19  1  0  0  0  0
  7 25  2  0  0  0  0
  8 24  1  0  0  0  0
  8 26  1  0  0  0  0
  8 27  1  0  0  0  0
  9 25  1  0  0  0  0
  9 28  1  0  0  0  0
  9 56  1  0  0  0  0
 10 11  1  0  0  0  0
 10 13  1  0  0  0  0
 10 14  1  0  0  0  0
 10 18  1  0  0  0  0
 11 12  1  0  0  0  0
 11 16  1  0  0  0  0
 11 35  1  0  0  0  0
 12 15  1  0  0  0  0
 12 20  1  0  0  0  0
 12 21  1  0  0  0  0
 13 19  1  0  0  0  0
 13 23  1  0  0  0  0
 13 36  1  0  0  0  0
 14 17  1  0  0  0  0
 14 37  1  0  0  0  0
 14 38  1  0  0  0  0
 15 17  1  0  0  0  0
 15 39  1  0  0  0  0
 16 22  1  0  0  0  0
 16 40  1  0  0  0  0
 16 41  1  0  0  0  0
 17 42  1  0  0  0  0
 17 43  1  0  0  0  0
 18 44  1  0  0  0  0
 18 45  1  0  0  0  0
 18 46  1  0  0  0  0
 19 22  2  0  0  0  0
 20 47  1  0  0  0  0
 20 48  1  0  0  0  0
 21 49  1  0  0  0  0
 21 50  1  0  0  0  0
 21 51  1  0  0  0  0
 23 24  1  0  0  0  0
 23 52  1  0  0  0  0
 23 53  1  0  0  0  0
 26 29  1  0  0  0  0
 26 57  1  0  0  0  0
 26 58  1  0  0  0  0
 27 30  1  0  0  0  0
 27 59  1  0  0  0  0
 27 60  1  0  0  0  0
 28 31  1  0  0  0  0
 29 61  1  0  0  0  0
 29 62  1  0  0  0  0
 29 63  1  0  0  0  0
 30 64  1  0  0  0  0
 30 65  1  0  0  0  0
 30 66  1  0  0  0  0
 31 32  2  0  0  0  0
 32 33  1  0  0  0  0
 32 67  1  0  0  0  0
 33 34  2  0  0  0  0
 33 68  1  0  0  0  0
 34 69  1  0  0  0  0
M  END
> <PUBCHEM_COMPOUND_CID>
7051087

> <PUBCHEM_CONFORMER_RMSD>
1

> <PUBCHEM_CONFORMER_DIVERSEORDER>
1
13
18
20
14
17
19
21
15
10
8
16
4
9
5
11
7
3
22
12
6
2

> <PUBCHEM_MMFF94_PARTIAL_CHARGES>
31
1 -0.08
13 0.18
15 0.28
16 0.18
19 0.05
2 -0.08
20 0.28
22 -0.14
23 0.06
24 0.57
25 0.44
26 0.3
27 0.3
28 0.71
3 -0.68
31 -0.05
32 -0.15
33 -0.15
34 -0.11
4 -0.68
5 -0.57
54 0.4
55 0.4
56 0.37
6 -0.57
67 0.15
68 0.15
69 0.15
7 -0.57
8 -0.66
9 -0.49

> <PUBCHEM_EFFECTIVE_ROTOR_COUNT>
10.2

> <PUBCHEM_PHARMACOPHORE_FEATURES>
11
1 3 acceptor
1 3 donor
1 4 acceptor
1 4 donor
1 5 acceptor
1 6 acceptor
1 9 donor
5 1 7 19 22 25 rings
5 2 31 32 33 34 rings
6 10 11 12 14 15 17 rings
6 10 11 13 16 19 22 rings

> <PUBCHEM_HEAVY_ATOM_COUNT>
34

> <PUBCHEM_ATOM_DEF_STEREO_COUNT>
5

> <PUBCHEM_ATOM_UDEF_STEREO_COUNT>
0

> <PUBCHEM_BOND_DEF_STEREO_COUNT>
0

> <PUBCHEM_BOND_UDEF_STEREO_COUNT>
0

> <PUBCHEM_ISOTOPIC_ATOM_COUNT>
0

> <PUBCHEM_COMPONENT_COUNT>
1

> <PUBCHEM_CACTVS_TAUTO_COUNT>
3

> <PUBCHEM_CONFORMER_ID>
006B974F00000001

> <PUBCHEM_MMFF94_ENERGY>
93.9015

> <PUBCHEM_FEATURE_SELFOVERLAP>
55.967

> <PUBCHEM_SHAPE_FINGERPRINT>
10050765 1 18123187892988053445
10369192 42 18335135410165102181
10675989 125 18268150868789423032
10864689 126 18341054129630980432
10940486 97 17974572700093131796
11007060 377 18198060472456451352
11135609 187 18341891904970316104
11135926 11 18411978031810429429
11315181 36 18340207487680403449
11578080 2 17533483544496819293
11719270 70 18412256230259459632
12522641 33 18409163321051131399
14028597 1 17703247160372215795
14190465 44 18124866009920353712
14725015 67 17908422807136773042
14790565 3 18410856594316708180
14844126 61 17977946019136804690
14856354 85 16081366405704116984
15183329 4 18335133206915723392
15200665 1 18053379083369234434
15320294 125 18042102351129656666
15400415 2 18339359781848703980
15439362 3 18338517430659295139
15664445 248 17911244914483577375
15815584 197 18266200399185299023
15927050 60 18412541050578688702
16067689 302 18341896295239672359
16719943 64 18338232777886917842
16993438 75 18118688957420775930
18681886 176 18337663243284992913
20554085 129 18059276722154053312
20642791 35 18196380212488905927
21133665 82 18412546531668159998
21360443 120 18409450280669268206
23559900 14 18050560747294015827
244849 19 17825132353907361923
249057 3 18409729600026804420
283562 15 18342741779966683144
3298306 158 18411702084271681110
3383291 50 18265332987484710586
3411729 13 18340769243384457518
4017518 198 18272093829577959862
4058900 60 18408608054245524618
4516262 110 18410290269178446749
5085150 59 18339913905401096202
5265222 85 18266179611765606484
5385378 56 18339651031606276865
563151 97 18410568466762417917
57527295 17 18128798799983304509
59755656 215 18412827975451276765
59755656 520 18336254751830541084
6371380 46 18271521009489102496
6376802 90 17968090864678406597
6669772 16 18410013204193899134
6898599 12 17974859668401741708
99344 41 18412260619410210972
9981440 41 18261117382847490155

> <PUBCHEM_SHAPE_MULTIPOLES>
668.98
16.42
6.2
1.05
15.69
10.45
-0.14
-18.72
0.53
3.24
-0.74
-0.9
0.39
0.97

> <PUBCHEM_SHAPE_SELFOVERLAP>
1388.106

> <PUBCHEM_SHAPE_VOLUME>
385.1

> <PUBCHEM_COORDINATE_TYPE>
2
5
10

$$$$
