75536739
  -OEChem-12032416303D

 48 49  0     1  0  0  0  0  0999 V2000
    3.5349    0.4187    1.0514 O   0  0  0  0  0  0  0  0  0  0  0  0
    4.1449   -2.5792    0.0978 O   0  0  0  0  0  0  0  0  0  0  0  0
    2.0401    2.8296    0.1224 O   0  0  0  0  0  0  0  0  0  0  0  0
    0.8782   -1.0443    0.5558 N   0  0  0  0  0  0  0  0  0  0  0  0
    1.9297    0.9359   -1.2187 N   0  0  0  0  0  0  0  0  0  0  0  0
   -0.0135    1.9911   -0.5582 N   0  0  0  0  0  0  0  0  0  0  0  0
   -5.3379   -0.2577    1.9097 N   0  0  0  0  0  0  0  0  0  0  0  0
    2.1928   -1.5300    0.9699 C   0  0  1  0  0  0  0  0  0  0  0  0
    3.1634   -1.5825   -0.1969 C   0  0  1  0  0  0  0  0  0  0  0  0
    3.8345   -0.2096   -0.2090 C   0  0  1  0  0  0  0  0  0  0  0  0
    2.8696   -0.5302    1.8935 C   0  0  0  0  0  0  0  0  0  0  0  0
    3.3406    0.6986   -1.3248 C   0  0  0  0  0  0  0  0  0  0  0  0
    0.0433   -2.1374    0.0722 C   0  0  0  0  0  0  0  0  0  0  0  0
   -1.3107   -1.6534   -0.3743 C   0  0  0  0  0  0  0  0  0  0  0  0
    1.3776    1.9961   -0.4942 C   0  0  0  0  0  0  0  0  0  0  0  0
   -2.2815   -1.3227    0.5712 C   0  0  0  0  0  0  0  0  0  0  0  0
   -1.5935   -1.5346   -1.7351 C   0  0  0  0  0  0  0  0  0  0  0  0
   -0.8309    2.9801    0.1043 C   0  0  0  0  0  0  0  0  0  0  0  0
   -3.5350   -0.8732    0.1560 C   0  0  0  0  0  0  0  0  0  0  0  0
   -2.8470   -1.0848   -2.1503 C   0  0  0  0  0  0  0  0  0  0  0  0
   -2.1058    3.2385   -0.6891 C   0  0  0  0  0  0  0  0  0  0  0  0
   -1.1465    2.5388    1.5275 C   0  0  0  0  0  0  0  0  0  0  0  0
   -3.8177   -0.7543   -1.2048 C   0  0  0  0  0  0  0  0  0  0  0  0
   -4.5298   -0.5336    1.1237 C   0  0  0  0  0  0  0  0  0  0  0  0
    2.0985   -2.4841    1.5029 H   0  0  0  0  0  0  0  0  0  0  0  0
    2.7134   -1.8637   -1.1540 H   0  0  0  0  0  0  0  0  0  0  0  0
    4.9246   -0.2987   -0.2805 H   0  0  0  0  0  0  0  0  0  0  0  0
    2.1868   -0.0066    2.5700 H   0  0  0  0  0  0  0  0  0  0  0  0
    3.6343   -1.0224    2.5059 H   0  0  0  0  0  0  0  0  0  0  0  0
    3.5332    0.2522   -2.3055 H   0  0  0  0  0  0  0  0  0  0  0  0
    3.8571    1.6635   -1.2756 H   0  0  0  0  0  0  0  0  0  0  0  0
    0.4135   -0.6078    1.3524 H   0  0  0  0  0  0  0  0  0  0  0  0
   -0.1033   -2.8900    0.8584 H   0  0  0  0  0  0  0  0  0  0  0  0
    0.5322   -2.6565   -0.7612 H   0  0  0  0  0  0  0  0  0  0  0  0
    4.7821   -2.5848   -0.6369 H   0  0  0  0  0  0  0  0  0  0  0  0
    1.2983    0.2939   -1.6880 H   0  0  0  0  0  0  0  0  0  0  0  0
   -2.0579   -1.4161    1.6320 H   0  0  0  0  0  0  0  0  0  0  0  0
   -0.4722    1.2196   -1.0329 H   0  0  0  0  0  0  0  0  0  0  0  0
   -0.8455   -1.7847   -2.4828 H   0  0  0  0  0  0  0  0  0  0  0  0
   -0.2608    3.9156    0.1539 H   0  0  0  0  0  0  0  0  0  0  0  0
   -3.0664   -0.9905   -3.2098 H   0  0  0  0  0  0  0  0  0  0  0  0
   -2.7141    4.0135   -0.2116 H   0  0  0  0  0  0  0  0  0  0  0  0
   -1.8691    3.5708   -1.7058 H   0  0  0  0  0  0  0  0  0  0  0  0
   -2.7137    2.3311   -0.7727 H   0  0  0  0  0  0  0  0  0  0  0  0
   -1.7417    3.2956    2.0488 H   0  0  0  0  0  0  0  0  0  0  0  0
   -0.2273    2.3780    2.1015 H   0  0  0  0  0  0  0  0  0  0  0  0
   -1.7075    1.5986    1.5376 H   0  0  0  0  0  0  0  0  0  0  0  0
   -4.7897   -0.4043   -1.5442 H   0  0  0  0  0  0  0  0  0  0  0  0
  1 10  1  0  0  0  0
  1 11  1  0  0  0  0
  2  9  1  0  0  0  0
  2 35  1  0  0  0  0
  3 15  2  0  0  0  0
  4  8  1  0  0  0  0
  4 13  1  0  0  0  0
  4 32  1  0  0  0  0
  5 12  1  0  0  0  0
  5 15  1  0  0  0  0
  5 36  1  0  0  0  0
  6 15  1  0  0  0  0
  6 18  1  0  0  0  0
  6 38  1  0  0  0  0
  7 24  3  0  0  0  0
  8  9  1  0  0  0  0
  8 11  1  0  0  0  0
  8 25  1  0  0  0  0
  9 10  1  0  0  0  0
  9 26  1  0  0  0  0
 10 12  1  0  0  0  0
 10 27  1  0  0  0  0
 11 28  1  0  0  0  0
 11 29  1  0  0  0  0
 12 30  1  0  0  0  0
 12 31  1  0  0  0  0
 13 14  1  0  0  0  0
 13 33  1  0  0  0  0
 13 34  1  0  0  0  0
 14 16  2  0  0  0  0
 14 17  1  0  0  0  0
 16 19  1  0  0  0  0
 16 37  1  0  0  0  0
 17 20  2  0  0  0  0
 17 39  1  0  0  0  0
 18 21  1  0  0  0  0
 18 22  1  0  0  0  0
 18 40  1  0  0  0  0
 19 23  2  0  0  0  0
 19 24  1  0  0  0  0
 20 23  1  0  0  0  0
 20 41  1  0  0  0  0
 21 42  1  0  0  0  0
 21 43  1  0  0  0  0
 21 44  1  0  0  0  0
 22 45  1  0  0  0  0
 22 46  1  0  0  0  0
 22 47  1  0  0  0  0
 23 48  1  0  0  0  0
M  END
> <PUBCHEM_COMPOUND_CID>
75536739

> <PUBCHEM_CONFORMER_RMSD>
1

> <PUBCHEM_CONFORMER_DIVERSEORDER>
5
163
149
152
35
138
166
56
71
19
119
146
28
123
74
175
144
34
90
24
98
96
154
92
48
73
160
39
108
64
82
72
89
105
63
164
67
148
162
113
155
128
60
161
159
107
16
38
127
43
91
94
168
153
142
21
106
18
52
172
129
104
85
10
147
61
158
97
126
68
2
176
171
122
177
57
133
22
135
25
36
45
50
77
33
130
47
121
1
12
30
58
137
100
27
120
143
79
53
54
124
167
15
131
83
88
84
51
13
7
165
170
112
118
29
55
32
157
69
114
40
132
95
42
93
46
81
139
117
110
17
37
26
174
99
70
169
141
20
173
102
62
125
87
59
103
86
111
150
101
136
4
65
115
140
78
8
49
151
9
109
6
14
31
134
41
11
156
44
145
80
75
23
76
66
3
116

> <PUBCHEM_MMFF94_PARTIAL_CHARGES>
30
1 -0.56
10 0.28
11 0.28
12 0.3
13 0.41
14 -0.14
15 0.69
16 -0.15
17 -0.15
18 0.3
19 0.07
2 -0.68
20 -0.15
23 -0.15
24 0.48
3 -0.57
32 0.36
35 0.4
36 0.37
37 0.15
38 0.37
39 0.15
4 -0.9
41 0.15
48 0.15
5 -0.73
6 -0.73
7 -0.56
8 0.27
9 0.28

> <PUBCHEM_EFFECTIVE_ROTOR_COUNT>
9

> <PUBCHEM_PHARMACOPHORE_FEATURES>
12
1 1 acceptor
1 2 acceptor
1 2 donor
1 3 acceptor
1 4 cation
1 4 donor
1 5 donor
1 6 donor
1 7 acceptor
3 18 21 22 hydrophobe
5 1 8 9 10 11 rings
6 14 16 17 19 20 23 rings

> <PUBCHEM_HEAVY_ATOM_COUNT>
24

> <PUBCHEM_ATOM_DEF_STEREO_COUNT>
3

> <PUBCHEM_ATOM_UDEF_STEREO_COUNT>
0

> <PUBCHEM_BOND_DEF_STEREO_COUNT>
0

> <PUBCHEM_BOND_UDEF_STEREO_COUNT>
0

> <PUBCHEM_ISOTOPIC_ATOM_COUNT>
0

> <PUBCHEM_COMPONENT_COUNT>
1

> <PUBCHEM_CACTVS_TAUTO_COUNT>
3

> <PUBCHEM_CONFORMER_ID>
0480996300000005

> <PUBCHEM_MMFF94_ENERGY>
39.2213

> <PUBCHEM_FEATURE_SELFOVERLAP>
60.949

> <PUBCHEM_SHAPE_FINGERPRINT>
104564 63 18410570647967338525
11578080 2 17630296749596480401
12422481 6 18125745404299584705
12553582 1 18410011078253457916
12633257 1 18114749330085991891
12788726 201 18270978880830353988
13140716 1 18046342204761807338
14251757 17 17386268957358560445
14251764 3 15338571427261147689
16752209 62 18339070506361590493
17357779 13 18267000839207347622
20261772 1 18271531909714653169
21041028 32 18336268942228510895
21421861 104 18336546113885803192
21860390 5 16056594417235362794
23419403 2 17179057216945118280
238 59 17113232994136365870
2818148 4 17609504821939404194
3052486 1 18191874414217925782
35225 105 17700115613427413360
445580 8 18273224092648802271
5895379 119 17274558623142278593
6438718 38 18129662993708311821
7064713 232 17843699772221533337
7226269 152 17901947771172509012
7832392 63 18196940095788049150
81228 2 18265597819673846650

> <PUBCHEM_SHAPE_MULTIPOLES>
456.38
8.32
3.51
1.74
2.51
3.1
-0.01
-3.28
-1.85
-0.13
0.17
1.04
-0.19
-0.84

> <PUBCHEM_SHAPE_SELFOVERLAP>
938.972

> <PUBCHEM_SHAPE_VOLUME>
261.5

> <PUBCHEM_COORDINATE_TYPE>
2
5
10

$$$$
