7049369
  -OEChem-12032416113D

 57 58  0     1  0  0  0  0  0999 V2000
   -4.2518   -2.9561    1.7449 Br  0  0  0  0  0  0  0  0  0  0  0  0
   -0.2382    2.3886    1.9376 O   0  0  0  0  0  0  0  0  0  0  0  0
    0.7381    4.4604   -0.9150 O   0  0  0  0  0  0  0  0  0  0  0  0
    4.1744    1.3565   -1.3007 O   0  0  0  0  0  0  0  0  0  0  0  0
   -3.1995    1.6613   -1.0207 O   0  0  0  0  0  0  0  0  0  0  0  0
    5.2073   -0.3899    2.1162 O   0  0  0  0  0  0  0  0  0  0  0  0
   -1.3616    0.7308    0.0286 N   0  0  0  0  0  0  0  0  0  0  0  0
    3.3626   -0.3345    0.0847 N   0  0  0  0  0  0  0  0  0  0  0  0
   -3.3950   -0.3184    0.2255 N   0  0  0  0  0  0  0  0  0  0  0  0
    6.7969   -1.0739    0.6063 N   0  0  0  0  0  0  0  0  0  0  0  0
   -0.3292    2.8978    0.6052 C   0  0  1  0  0  0  0  0  0  0  0  0
    0.8894    3.7885    0.3338 C   0  0  1  0  0  0  0  0  0  0  0  0
   -0.4058    1.7259   -0.3921 C   0  0  1  0  0  0  0  0  0  0  0  0
    2.2045    2.9904    0.3475 C   0  0  0  0  0  0  0  0  0  0  0  0
    2.0838    1.6318   -0.2824 C   0  0  0  0  0  0  0  0  0  0  0  0
    0.9215    1.0570   -0.6266 C   0  0  0  0  0  0  0  0  0  0  0  0
    4.4722   -1.2436   -0.0381 C   0  0  2  0  0  0  0  0  0  0  0  0
    3.3157    0.8881   -0.5613 C   0  0  0  0  0  0  0  0  0  0  0  0
    4.0525   -2.7046    0.1673 C   0  0  0  0  0  0  0  0  0  0  0  0
    2.9583   -3.2051   -0.7978 C   0  0  0  0  0  0  0  0  0  0  0  0
    2.5891   -4.6510   -0.4548 C   0  0  0  0  0  0  0  0  0  0  0  0
    3.3887   -3.1174   -2.2626 C   0  0  0  0  0  0  0  0  0  0  0  0
   -2.7157    0.7725   -0.3240 C   0  0  0  0  0  0  0  0  0  0  0  0
    5.4996   -0.8378    1.0101 C   0  0  0  0  0  0  0  0  0  0  0  0
   -4.7677   -0.6371    0.1040 C   0  0  0  0  0  0  0  0  0  0  0  0
   -5.3126   -1.7679    0.7124 C   0  0  0  0  0  0  0  0  0  0  0  0
   -5.5814    0.2113   -0.6470 C   0  0  0  0  0  0  0  0  0  0  0  0
   -6.6712   -2.0502    0.5698 C   0  0  0  0  0  0  0  0  0  0  0  0
   -6.9400   -0.0713   -0.7896 C   0  0  0  0  0  0  0  0  0  0  0  0
   -7.4848   -1.2019   -0.1812 C   0  0  0  0  0  0  0  0  0  0  0  0
   -1.2547    3.4826    0.5374 H   0  0  0  0  0  0  0  0  0  0  0  0
    0.9525    4.5652    1.1057 H   0  0  0  0  0  0  0  0  0  0  0  0
   -0.7358    2.1186   -1.3628 H   0  0  0  0  0  0  0  0  0  0  0  0
    2.9876    3.5640   -0.1626 H   0  0  0  0  0  0  0  0  0  0  0  0
    2.5249    2.8476    1.3873 H   0  0  0  0  0  0  0  0  0  0  0  0
    0.9104    0.0878   -1.1214 H   0  0  0  0  0  0  0  0  0  0  0  0
    4.9188   -1.1111   -1.0303 H   0  0  0  0  0  0  0  0  0  0  0  0
   -1.0512   -0.0080    0.6531 H   0  0  0  0  0  0  0  0  0  0  0  0
    4.9389   -3.3472    0.0791 H   0  0  0  0  0  0  0  0  0  0  0  0
    3.6928   -2.8310    1.1980 H   0  0  0  0  0  0  0  0  0  0  0  0
    2.0562   -2.5947   -0.6679 H   0  0  0  0  0  0  0  0  0  0  0  0
    2.6182   -0.5853    0.7300 H   0  0  0  0  0  0  0  0  0  0  0  0
   -0.2212    3.1506    2.5414 H   0  0  0  0  0  0  0  0  0  0  0  0
    1.5056    5.0465   -1.0289 H   0  0  0  0  0  0  0  0  0  0  0  0
    3.4475   -5.3206   -0.5759 H   0  0  0  0  0  0  0  0  0  0  0  0
    2.2414   -4.7284    0.5809 H   0  0  0  0  0  0  0  0  0  0  0  0
    1.7838   -5.0116   -1.1036 H   0  0  0  0  0  0  0  0  0  0  0  0
    2.6258   -3.5516   -2.9181 H   0  0  0  0  0  0  0  0  0  0  0  0
    3.5282   -2.0783   -2.5755 H   0  0  0  0  0  0  0  0  0  0  0  0
    4.3270   -3.6557   -2.4337 H   0  0  0  0  0  0  0  0  0  0  0  0
   -2.8459   -0.9689    0.7816 H   0  0  0  0  0  0  0  0  0  0  0  0
    7.5789   -0.8606    1.2167 H   0  0  0  0  0  0  0  0  0  0  0  0
    7.0231   -1.4657   -0.3022 H   0  0  0  0  0  0  0  0  0  0  0  0
   -5.2483    1.1054   -1.1516 H   0  0  0  0  0  0  0  0  0  0  0  0
   -7.1142   -2.9265    1.0362 H   0  0  0  0  0  0  0  0  0  0  0  0
   -7.5751    0.5883   -1.3741 H   0  0  0  0  0  0  0  0  0  0  0  0
   -8.5426   -1.4217   -0.2924 H   0  0  0  0  0  0  0  0  0  0  0  0
  1 26  1  0  0  0  0
  2 11  1  0  0  0  0
  2 43  1  0  0  0  0
  3 12  1  0  0  0  0
  3 44  1  0  0  0  0
  4 18  2  0  0  0  0
  5 23  2  0  0  0  0
  6 24  2  0  0  0  0
  7 13  1  0  0  0  0
  7 23  1  0  0  0  0
  7 38  1  0  0  0  0
  8 17  1  0  0  0  0
  8 18  1  0  0  0  0
  8 42  1  0  0  0  0
  9 23  1  0  0  0  0
  9 25  1  0  0  0  0
  9 51  1  0  0  0  0
 10 24  1  0  0  0  0
 10 52  1  0  0  0  0
 10 53  1  0  0  0  0
 11 12  1  0  0  0  0
 11 13  1  0  0  0  0
 11 31  1  0  0  0  0
 12 14  1  0  0  0  0
 12 32  1  0  0  0  0
 13 16  1  0  0  0  0
 13 33  1  0  0  0  0
 14 15  1  0  0  0  0
 14 34  1  0  0  0  0
 14 35  1  0  0  0  0
 15 16  2  0  0  0  0
 15 18  1  0  0  0  0
 16 36  1  0  0  0  0
 17 19  1  0  0  0  0
 17 24  1  0  0  0  0
 17 37  1  0  0  0  0
 19 20  1  0  0  0  0
 19 39  1  0  0  0  0
 19 40  1  0  0  0  0
 20 21  1  0  0  0  0
 20 22  1  0  0  0  0
 20 41  1  0  0  0  0
 21 45  1  0  0  0  0
 21 46  1  0  0  0  0
 21 47  1  0  0  0  0
 22 48  1  0  0  0  0
 22 49  1  0  0  0  0
 22 50  1  0  0  0  0
 25 26  1  0  0  0  0
 25 27  2  0  0  0  0
 26 28  2  0  0  0  0
 27 29  1  0  0  0  0
 27 54  1  0  0  0  0
 28 30  1  0  0  0  0
 28 55  1  0  0  0  0
 29 30  2  0  0  0  0
 29 56  1  0  0  0  0
 30 57  1  0  0  0  0
M  END
> <PUBCHEM_COMPOUND_CID>
7049369

> <PUBCHEM_CONFORMER_RMSD>
1.2

> <PUBCHEM_CONFORMER_DIVERSEORDER>
1
17
101
29
44
65
104
34
76
68
60
64
81
91
87
55
30
70
63
51
97
12
105
52
5
35
16
47
69
93
84
25
39
24
38
37
11
75
109
13
67
83
94
98
32
61
90
100
31
19
53
21
23
28
27
96
72
43
58
56
74
41
78
62
10
9
50
107
33
36
80
59
26
77
3
20
46
2
99
92
49
88
103
6
4
82
57
102
54
45
106
95
14
85
71
108
40
8
22
15
89
7
79
48
18
73
86
42
66

> <PUBCHEM_MMFF94_PARTIAL_CHARGES>
38
1 -0.11
10 -0.8
11 0.28
12 0.28
13 0.44
14 0.14
15 -0.12
16 -0.29
17 0.36
18 0.62
2 -0.68
23 0.69
24 0.57
25 0.12
26 0.11
27 -0.15
28 -0.15
29 -0.15
3 -0.68
30 -0.15
36 0.15
38 0.37
4 -0.57
42 0.37
43 0.4
44 0.4
5 -0.57
51 0.37
52 0.37
53 0.37
54 0.15
55 0.15
56 0.15
57 0.15
6 -0.57
7 -0.73
8 -0.73
9 -0.55

> <PUBCHEM_EFFECTIVE_ROTOR_COUNT>
10.8

> <PUBCHEM_PHARMACOPHORE_FEATURES>
15
1 1 hydrophobe
1 10 donor
1 2 acceptor
1 2 donor
1 3 acceptor
1 3 donor
1 4 acceptor
1 5 acceptor
1 6 acceptor
1 7 donor
1 8 donor
1 9 donor
3 20 21 22 hydrophobe
6 11 12 13 14 15 16 rings
6 25 26 27 28 29 30 rings

> <PUBCHEM_HEAVY_ATOM_COUNT>
30

> <PUBCHEM_ATOM_DEF_STEREO_COUNT>
4

> <PUBCHEM_ATOM_UDEF_STEREO_COUNT>
0

> <PUBCHEM_BOND_DEF_STEREO_COUNT>
0

> <PUBCHEM_BOND_UDEF_STEREO_COUNT>
0

> <PUBCHEM_ISOTOPIC_ATOM_COUNT>
0

> <PUBCHEM_COMPONENT_COUNT>
1

> <PUBCHEM_CACTVS_TAUTO_COUNT>
12

> <PUBCHEM_CONFORMER_ID>
006B909900000001

> <PUBCHEM_MMFF94_ENERGY>
66.3637

> <PUBCHEM_FEATURE_SELFOVERLAP>
76.182

> <PUBCHEM_SHAPE_FINGERPRINT>
10258939 38 18041824169897918720
11204353 107 17831874803758223270
117089 54 18269004076453623582
11796584 16 18114454557463056477
11828532 37 17750524043222870771
12107183 9 18198919028647041681
12202916 173 18333445456983871282
12758862 65 18340195376125304858
13782708 43 18261954159000030239
13955234 65 18053946435728119841
15183329 4 17675919889891024331
15274700 208 17130691964351281066
15419008 42 18045762508604435551
15510800 12 18336274469725404930
15927050 60 17692532630340411732
17492 89 18124032326333722054
1979834 28 18060137643832542262
20567600 70 18334855039158230698
21033650 10 16226318223930122757
21315759 227 18334290920931506918
23559900 14 18116429427066637029
23572383 38 18337669724358694963
3004659 81 17967813851449789240
3421961 26 18411980303558036881
345986 75 17632303358723359681
439807 62 18040433300298448067
463206 1 18340203093532987014
5309563 4 18269561550375911814
613672 6 18410295783098634387
6695519 79 17186464854219930609

> <PUBCHEM_SHAPE_MULTIPOLES>
574.06
17.44
5.41
1.43
20.57
0.08
0.19
13.95
1.47
-4.92
-0.46
-0.8
0.61
2.03

> <PUBCHEM_SHAPE_SELFOVERLAP>
1173.524

> <PUBCHEM_SHAPE_VOLUME>
335.4

> <PUBCHEM_COORDINATE_TYPE>
2
5
10

$$$$
