7672351
  -OEChem-12032416233D

 53 58  0     1  0  0  0  0  0999 V2000
   -2.8995    1.0676    0.4105 S   0  0  0  0  0  0  0  0  0  0  0  0
   -0.9342   -1.9174    1.4421 O   0  0  0  0  0  0  0  0  0  0  0  0
    3.2296    0.7909    2.4839 O   0  0  0  0  0  0  0  0  0  0  0  0
    3.7095   -0.4285    0.5460 N   0  0  0  0  0  0  0  0  0  0  0  0
    0.9337   -1.8509    0.0454 N   0  0  0  0  0  0  0  0  0  0  0  0
    3.1931   -2.8542    0.7201 C   0  0  1  0  0  0  0  0  0  0  0  0
    2.9585   -1.7057   -1.4454 C   0  0  2  0  0  0  0  0  0  0  0  0
    3.4154   -3.0037   -0.7813 C   0  0  0  0  0  0  0  0  0  0  0  0
    4.0062   -1.6660    1.2668 C   0  0  0  0  0  0  0  0  0  0  0  0
    1.6900   -2.6952    0.9822 C   0  0  0  0  0  0  0  0  0  0  0  0
    3.8067   -0.5294   -0.9194 C   0  0  0  0  0  0  0  0  0  0  0  0
    1.4919   -1.4369   -1.1673 C   0  0  0  0  0  0  0  0  0  0  0  0
    0.7473   -0.7646   -2.0601 C   0  0  0  0  0  0  0  0  0  0  0  0
   -0.4030   -1.5644    0.3878 C   0  0  0  0  0  0  0  0  0  0  0  0
    3.3115    0.7046    1.2598 C   0  0  0  0  0  0  0  0  0  0  0  0
   -1.1975   -0.7811   -0.6202 C   0  0  0  0  0  0  0  0  0  0  0  0
   -0.6203   -0.4322   -1.7790 C   0  0  0  0  0  0  0  0  0  0  0  0
    2.9297    1.8998    0.4996 C   0  0  0  0  0  0  0  0  0  0  0  0
   -2.5537   -0.4192   -0.3566 C   0  0  0  0  0  0  0  0  0  0  0  0
   -3.7058   -1.1229   -0.6405 C   0  0  0  0  0  0  0  0  0  0  0  0
    1.6045    2.0803    0.1118 C   0  0  0  0  0  0  0  0  0  0  0  0
    3.8946    2.8479    0.1693 C   0  0  0  0  0  0  0  0  0  0  0  0
   -4.8997   -0.4419   -0.2268 C   0  0  0  0  0  0  0  0  0  0  0  0
   -4.6003    0.7859    0.3716 C   0  0  0  0  0  0  0  0  0  0  0  0
    1.2417    3.2166   -0.6113 C   0  0  0  0  0  0  0  0  0  0  0  0
    3.5318    3.9842   -0.5537 C   0  0  0  0  0  0  0  0  0  0  0  0
    2.2053    4.1685   -0.9440 C   0  0  0  0  0  0  0  0  0  0  0  0
   -6.2599   -0.8198   -0.3347 C   0  0  0  0  0  0  0  0  0  0  0  0
   -5.6138    1.6347    0.8584 C   0  0  0  0  0  0  0  0  0  0  0  0
   -7.2677    0.0196    0.1473 C   0  0  0  0  0  0  0  0  0  0  0  0
   -6.9456    1.2335    0.7373 C   0  0  0  0  0  0  0  0  0  0  0  0
    3.5399   -3.7584    1.2352 H   0  0  0  0  0  0  0  0  0  0  0  0
    3.1226   -1.7968   -2.5269 H   0  0  0  0  0  0  0  0  0  0  0  0
    2.8522   -3.8604   -1.1721 H   0  0  0  0  0  0  0  0  0  0  0  0
    4.4749   -3.1911   -0.9946 H   0  0  0  0  0  0  0  0  0  0  0  0
    3.8227   -1.5442    2.3395 H   0  0  0  0  0  0  0  0  0  0  0  0
    5.0788   -1.8582    1.1420 H   0  0  0  0  0  0  0  0  0  0  0  0
    1.2180   -3.6860    0.9317 H   0  0  0  0  0  0  0  0  0  0  0  0
    1.5158   -2.3302    2.0023 H   0  0  0  0  0  0  0  0  0  0  0  0
    4.8651   -0.6944   -1.1562 H   0  0  0  0  0  0  0  0  0  0  0  0
    3.5146    0.4017   -1.4111 H   0  0  0  0  0  0  0  0  0  0  0  0
    1.1626   -0.4185   -3.0007 H   0  0  0  0  0  0  0  0  0  0  0  0
   -1.1545    0.1296   -2.5396 H   0  0  0  0  0  0  0  0  0  0  0  0
   -3.7030   -2.0917   -1.1266 H   0  0  0  0  0  0  0  0  0  0  0  0
    0.8442    1.3553    0.3836 H   0  0  0  0  0  0  0  0  0  0  0  0
    4.9307    2.7132    0.4682 H   0  0  0  0  0  0  0  0  0  0  0  0
    0.2079    3.3614   -0.9114 H   0  0  0  0  0  0  0  0  0  0  0  0
    4.2819    4.7255   -0.8129 H   0  0  0  0  0  0  0  0  0  0  0  0
    1.9226    5.0536   -1.5062 H   0  0  0  0  0  0  0  0  0  0  0  0
   -6.5278   -1.7680   -0.7945 H   0  0  0  0  0  0  0  0  0  0  0  0
   -5.3711    2.5868    1.3217 H   0  0  0  0  0  0  0  0  0  0  0  0
   -8.3076   -0.2816    0.0586 H   0  0  0  0  0  0  0  0  0  0  0  0
   -7.7362    1.8798    1.1093 H   0  0  0  0  0  0  0  0  0  0  0  0
  1 19  1  0  0  0  0
  1 24  1  0  0  0  0
  2 14  2  0  0  0  0
  3 15  2  0  0  0  0
  4  9  1  0  0  0  0
  4 11  1  0  0  0  0
  4 15  1  0  0  0  0
  5 10  1  0  0  0  0
  5 12  1  0  0  0  0
  5 14  1  0  0  0  0
  6  8  1  0  0  0  0
  6  9  1  0  0  0  0
  6 10  1  0  0  0  0
  6 32  1  0  0  0  0
  7  8  1  0  0  0  0
  7 11  1  0  0  0  0
  7 12  1  0  0  0  0
  7 33  1  0  0  0  0
  8 34  1  0  0  0  0
  8 35  1  0  0  0  0
  9 36  1  0  0  0  0
  9 37  1  0  0  0  0
 10 38  1  0  0  0  0
 10 39  1  0  0  0  0
 11 40  1  0  0  0  0
 11 41  1  0  0  0  0
 12 13  2  0  0  0  0
 13 17  1  0  0  0  0
 13 42  1  0  0  0  0
 14 16  1  0  0  0  0
 15 18  1  0  0  0  0
 16 17  2  0  0  0  0
 16 19  1  0  0  0  0
 17 43  1  0  0  0  0
 18 21  2  0  0  0  0
 18 22  1  0  0  0  0
 19 20  2  0  0  0  0
 20 23  1  0  0  0  0
 20 44  1  0  0  0  0
 21 25  1  0  0  0  0
 21 45  1  0  0  0  0
 22 26  2  0  0  0  0
 22 46  1  0  0  0  0
 23 24  1  0  0  0  0
 23 28  2  0  0  0  0
 24 29  2  0  0  0  0
 25 27  2  0  0  0  0
 25 47  1  0  0  0  0
 26 27  1  0  0  0  0
 26 48  1  0  0  0  0
 27 49  1  0  0  0  0
 28 30  1  0  0  0  0
 28 50  1  0  0  0  0
 29 31  1  0  0  0  0
 29 51  1  0  0  0  0
 30 31  2  0  0  0  0
 30 52  1  0  0  0  0
 31 53  1  0  0  0  0
M  END
> <PUBCHEM_COMPOUND_CID>
7672351

> <PUBCHEM_CONFORMER_RMSD>
0.8

> <PUBCHEM_CONFORMER_DIVERSEORDER>
1
9
10
6
8
11
5
4
2
12
7
3

> <PUBCHEM_MMFF94_PARTIAL_CHARGES>
40
1 -0.08
10 0.3
11 0.3
12 -0.03
13 -0.15
14 0.62
15 0.54
16 0.06
17 -0.15
18 0.09
19 -0.01
2 -0.57
20 -0.15
21 -0.15
22 -0.15
24 0.04
25 -0.15
26 -0.15
27 -0.15
28 -0.15
29 -0.15
3 -0.57
30 -0.15
31 -0.15
4 -0.66
42 0.15
43 0.15
44 0.15
45 0.15
46 0.15
47 0.15
48 0.15
49 0.15
5 -0.47
50 0.15
51 0.15
52 0.15
53 0.15
7 0.14
9 0.3

> <PUBCHEM_EFFECTIVE_ROTOR_COUNT>
4

> <PUBCHEM_PHARMACOPHORE_FEATURES>
8
1 2 acceptor
1 3 acceptor
5 1 19 20 23 24 rings
6 18 21 22 25 26 27 rings
6 23 24 28 29 30 31 rings
6 4 6 7 8 9 11 rings
6 5 12 13 14 16 17 rings
6 5 6 7 8 10 12 rings

> <PUBCHEM_HEAVY_ATOM_COUNT>
31

> <PUBCHEM_ATOM_DEF_STEREO_COUNT>
2

> <PUBCHEM_ATOM_UDEF_STEREO_COUNT>
0

> <PUBCHEM_BOND_DEF_STEREO_COUNT>
0

> <PUBCHEM_BOND_UDEF_STEREO_COUNT>
0

> <PUBCHEM_ISOTOPIC_ATOM_COUNT>
0

> <PUBCHEM_COMPONENT_COUNT>
1

> <PUBCHEM_CACTVS_TAUTO_COUNT>
1

> <PUBCHEM_CONFORMER_ID>
0075121F00000001

> <PUBCHEM_MMFF94_ENERGY>
87.8383

> <PUBCHEM_FEATURE_SELFOVERLAP>
42.252

> <PUBCHEM_SHAPE_FINGERPRINT>
10165383 225 17967822678145802854
10190108 129 18337377255304547778
10483366 6 18337690684864626148
10674148 151 18200599228617673196
11578080 2 18189915273196312627
12107698 1 18342459184440467729
12166972 35 18130231441235670267
12539745 222 16807837743528717986
12633257 1 17968918907964792858
13785724 45 18125446314949901142
13965767 371 17773004572069657410
14849402 71 18335423473916679564
15439362 3 18195251246798717212
15475509 84 17324353017740636907
17844677 252 18271249322816335395
21033648 29 17240756273393515071
21475661 188 18337394949662373748
21792934 111 18335709292166097513
21859007 373 17604977145342324325
21860390 5 18413672413593345158
22223350 30 17385735728679503587
23522609 53 11386929893084027783
23559900 14 18341902874248549831
3411729 13 18341053007404696268
397830 11 18115882944275928371
4058900 60 18044950197065887524
4112364 45 16629373974644831178
4144715 1 18200886058964459779
474 4 18338794627732371997
5104073 3 18338531794042614387
513532 50 17489595575643404740
53794403 172 18263089962368585349
57816373 69 18194394494964688807
6086070 43 18336277794246350794
67856867 119 18412546522682709845
9849439 229 17912632803042181216
9896288 288 17324649267990628992
9981440 41 18050007997687111977

> <PUBCHEM_SHAPE_MULTIPOLES>
620.11
13.59
4.28
1.53
29.84
3.6
-0.03
2.7
-2.77
-7.19
0.42
-1.26
-0.35
-0.89

> <PUBCHEM_SHAPE_SELFOVERLAP>
1380.006

> <PUBCHEM_SHAPE_VOLUME>
330.4

> <PUBCHEM_COORDINATE_TYPE>
2
5
10

$$$$
