11941493
  -OEChem-12032416153D

 57 61  0     1  0  0  0  0  0999 V2000
    4.9366   -3.1142   -0.8892 S   0  0  0  0  0  0  0  0  0  0  0  0
   -0.1358    3.9718   -1.0572 O   0  0  0  0  0  0  0  0  0  0  0  0
    1.7722    0.7051    2.6097 O   0  0  0  0  0  0  0  0  0  0  0  0
   -4.5557    1.6397   -0.7990 O   0  0  0  0  0  0  0  0  0  0  0  0
    0.2143    1.5399    1.1385 N   0  0  0  0  0  0  0  0  0  0  0  0
   -2.5425    0.7175   -0.1068 N   0  0  0  0  0  0  0  0  0  0  0  0
   -4.3424   -0.6536   -0.5058 N   0  0  0  0  0  0  0  0  0  0  0  0
    1.7750    2.7323   -1.0521 N   0  0  0  0  0  0  0  0  0  0  0  0
   -1.8089    1.9589   -0.0125 C   0  0  2  0  0  0  0  0  0  0  0  0
   -0.3043    1.7229   -0.2043 C   0  0  1  0  0  0  0  0  0  0  0  0
   -1.9000    2.5501    1.3957 C   0  0  0  0  0  0  0  0  0  0  0  0
   -0.7904    1.8345    2.1499 C   0  0  0  0  0  0  0  0  0  0  0  0
   -5.6945   -1.0115   -0.8730 C   0  0  0  0  0  0  0  0  0  0  0  0
   -5.7364   -2.3876   -1.5460 C   0  0  0  0  0  0  0  0  0  0  0  0
   -6.6277   -0.9584    0.3413 C   0  0  0  0  0  0  0  0  0  0  0  0
    0.4382    2.9199   -0.7689 C   0  0  0  0  0  0  0  0  0  0  0  0
   -5.4849   -3.5286   -0.5603 C   0  0  0  0  0  0  0  0  0  0  0  0
   -6.3746   -2.1018    1.3239 C   0  0  0  0  0  0  0  0  0  0  0  0
   -6.4326   -3.4609    0.6333 C   0  0  0  0  0  0  0  0  0  0  0  0
    1.4379    0.9933    1.4607 C   0  0  0  0  0  0  0  0  0  0  0  0
   -3.8769    0.6586   -0.4988 C   0  0  0  0  0  0  0  0  0  0  0  0
    2.4127    0.7634    0.3628 C   0  0  0  0  0  0  0  0  0  0  0  0
    2.5968    1.6312   -0.7272 C   0  0  0  0  0  0  0  0  0  0  0  0
    3.3020   -0.3107    0.5491 C   0  0  0  0  0  0  0  0  0  0  0  0
    3.7084    1.4391   -1.5663 C   0  0  0  0  0  0  0  0  0  0  0  0
    4.3717   -0.5131   -0.3217 C   0  0  0  0  0  0  0  0  0  0  0  0
    4.5826    0.3698   -1.3727 C   0  0  0  0  0  0  0  0  0  0  0  0
    5.2714   -1.6219   -0.1176 C   0  0  0  0  0  0  0  0  0  0  0  0
    6.4217   -1.6800    0.6399 C   0  0  0  0  0  0  0  0  0  0  0  0
    7.0349   -2.9649    0.5855 C   0  0  0  0  0  0  0  0  0  0  0  0
    6.3309   -3.8409   -0.2110 C   0  0  0  0  0  0  0  0  0  0  0  0
   -2.2273    2.6510   -0.7510 H   0  0  0  0  0  0  0  0  0  0  0  0
   -0.0981    0.8443   -0.8271 H   0  0  0  0  0  0  0  0  0  0  0  0
   -2.8760    2.4202    1.8730 H   0  0  0  0  0  0  0  0  0  0  0  0
   -1.6798    3.6240    1.3586 H   0  0  0  0  0  0  0  0  0  0  0  0
   -0.3593    2.4362    2.9556 H   0  0  0  0  0  0  0  0  0  0  0  0
   -1.1355    0.8826    2.5689 H   0  0  0  0  0  0  0  0  0  0  0  0
   -6.0402   -0.2659   -1.5999 H   0  0  0  0  0  0  0  0  0  0  0  0
   -2.0877   -0.1409    0.1897 H   0  0  0  0  0  0  0  0  0  0  0  0
   -4.9986   -2.4380   -2.3559 H   0  0  0  0  0  0  0  0  0  0  0  0
   -6.7231   -2.5299   -2.0052 H   0  0  0  0  0  0  0  0  0  0  0  0
   -7.6671   -1.0177   -0.0064 H   0  0  0  0  0  0  0  0  0  0  0  0
   -6.5241   -0.0007    0.8654 H   0  0  0  0  0  0  0  0  0  0  0  0
   -4.4473   -3.4997   -0.2075 H   0  0  0  0  0  0  0  0  0  0  0  0
   -5.6137   -4.4881   -1.0741 H   0  0  0  0  0  0  0  0  0  0  0  0
   -7.1197   -2.0662    2.1268 H   0  0  0  0  0  0  0  0  0  0  0  0
   -5.3934   -1.9729    1.7968 H   0  0  0  0  0  0  0  0  0  0  0  0
   -7.4582   -3.6535    0.2951 H   0  0  0  0  0  0  0  0  0  0  0  0
   -6.1801   -4.2502    1.3502 H   0  0  0  0  0  0  0  0  0  0  0  0
   -3.7188   -1.3809   -0.1702 H   0  0  0  0  0  0  0  0  0  0  0  0
    2.1998    3.4446   -1.6413 H   0  0  0  0  0  0  0  0  0  0  0  0
    3.1681   -0.9886    1.3913 H   0  0  0  0  0  0  0  0  0  0  0  0
    3.8902    2.1114   -2.4027 H   0  0  0  0  0  0  0  0  0  0  0  0
    5.4203    0.2422   -2.0541 H   0  0  0  0  0  0  0  0  0  0  0  0
    6.8105   -0.8442    1.2084 H   0  0  0  0  0  0  0  0  0  0  0  0
    7.9461   -3.2332    1.1042 H   0  0  0  0  0  0  0  0  0  0  0  0
    6.5687   -4.8729   -0.4272 H   0  0  0  0  0  0  0  0  0  0  0  0
  1 28  1  0  0  0  0
  1 31  1  0  0  0  0
  2 16  2  0  0  0  0
  3 20  2  0  0  0  0
  4 21  2  0  0  0  0
  5 10  1  0  0  0  0
  5 12  1  0  0  0  0
  5 20  1  0  0  0  0
  6  9  1  0  0  0  0
  6 21  1  0  0  0  0
  6 39  1  0  0  0  0
  7 13  1  0  0  0  0
  7 21  1  0  0  0  0
  7 50  1  0  0  0  0
  8 16  1  0  0  0  0
  8 23  1  0  0  0  0
  8 51  1  0  0  0  0
  9 10  1  0  0  0  0
  9 11  1  0  0  0  0
  9 32  1  0  0  0  0
 10 16  1  0  0  0  0
 10 33  1  0  0  0  0
 11 12  1  0  0  0  0
 11 34  1  0  0  0  0
 11 35  1  0  0  0  0
 12 36  1  0  0  0  0
 12 37  1  0  0  0  0
 13 14  1  0  0  0  0
 13 15  1  0  0  0  0
 13 38  1  0  0  0  0
 14 17  1  0  0  0  0
 14 40  1  0  0  0  0
 14 41  1  0  0  0  0
 15 18  1  0  0  0  0
 15 42  1  0  0  0  0
 15 43  1  0  0  0  0
 17 19  1  0  0  0  0
 17 44  1  0  0  0  0
 17 45  1  0  0  0  0
 18 19  1  0  0  0  0
 18 46  1  0  0  0  0
 18 47  1  0  0  0  0
 19 48  1  0  0  0  0
 19 49  1  0  0  0  0
 20 22  1  0  0  0  0
 22 23  2  0  0  0  0
 22 24  1  0  0  0  0
 23 25  1  0  0  0  0
 24 26  2  0  0  0  0
 24 52  1  0  0  0  0
 25 27  2  0  0  0  0
 25 53  1  0  0  0  0
 26 27  1  0  0  0  0
 26 28  1  0  0  0  0
 27 54  1  0  0  0  0
 28 29  2  0  0  0  0
 29 30  1  0  0  0  0
 29 55  1  0  0  0  0
 30 31  2  0  0  0  0
 30 56  1  0  0  0  0
 31 57  1  0  0  0  0
M  END
> <PUBCHEM_COMPOUND_CID>
11941493

> <PUBCHEM_CONFORMER_RMSD>
1

> <PUBCHEM_CONFORMER_DIVERSEORDER>
1
17
27
11
28
25
12
26
21
20
8
29
9
4
19
3
16
10
13
6
23
14
18
7
2
5
24
15
22

> <PUBCHEM_MMFF94_PARTIAL_CHARGES>
34
1 -0.08
10 0.36
12 0.3
13 0.3
16 0.57
2 -0.57
20 0.54
21 0.69
22 0.09
23 0.12
24 -0.15
25 -0.15
26 0.05
27 -0.15
28 -0.01
29 -0.15
3 -0.57
30 -0.15
31 -0.11
39 0.37
4 -0.57
5 -0.66
50 0.37
51 0.37
52 0.15
53 0.15
54 0.15
55 0.15
56 0.15
57 0.15
6 -0.73
7 -0.73
8 -0.55
9 0.3

> <PUBCHEM_EFFECTIVE_ROTOR_COUNT>
7

> <PUBCHEM_PHARMACOPHORE_FEATURES>
11
1 2 acceptor
1 3 acceptor
1 4 acceptor
1 6 donor
1 7 donor
1 8 donor
5 1 28 29 30 31 rings
5 5 9 10 11 12 rings
6 13 14 15 17 18 19 rings
6 22 23 24 25 26 27 rings
7 5 8 10 16 20 22 23 rings

> <PUBCHEM_HEAVY_ATOM_COUNT>
31

> <PUBCHEM_ATOM_DEF_STEREO_COUNT>
2

> <PUBCHEM_ATOM_UDEF_STEREO_COUNT>
0

> <PUBCHEM_BOND_DEF_STEREO_COUNT>
0

> <PUBCHEM_BOND_UDEF_STEREO_COUNT>
0

> <PUBCHEM_ISOTOPIC_ATOM_COUNT>
0

> <PUBCHEM_COMPONENT_COUNT>
1

> <PUBCHEM_CACTVS_TAUTO_COUNT>
9

> <PUBCHEM_CONFORMER_ID>
00B6367500000001

> <PUBCHEM_MMFF94_ENERGY>
79.1301

> <PUBCHEM_FEATURE_SELFOVERLAP>
55.933

> <PUBCHEM_SHAPE_FINGERPRINT>
10074138 170 16914834535135757161
10169797 241 17845939640520896662
10280341 67 7925045021040995758
10622 236 18408882910609125238
10693767 8 18187082867002924018
11059845 2 17844547526194483593
11409948 35 18265054812362441179
11497681 19 18411986824351808798
11607047 403 18196081360924205752
117089 54 18409172147025107355
11763715 3 18268453337087151021
11796584 16 18270678641193897932
12166972 35 18040158430564928735
12422481 6 16845303765094655519
12633257 1 15482384352433957733
12975358 362 9438576781387944799
1361 4 18263086668218307567
13690498 29 17967529052601356941
13782708 43 18200868479515117682
14150023 24 17624989231831049777
14211702 104 18271812259537091670
14251764 30 18409445899343826943
14739800 52 9655308024896450245
14951699 99 10592042474817933202
15019793 15 18053660566847124863
15950262 2 8502074280631190002
17492 89 18410009979132460605
18603816 31 18269283374345282043
19303781 99 18336252513905478470
19438510 23 9007048080825083630
20028762 73 18338233740218672198
20058555 10 9367349228128050183
20642791 268 12463278220349278648
20775438 99 17972030615839131506
21033648 29 13901646112539524227
21424621 283 9871457729950583252
21756936 100 9006468625597628204
21796203 349 15769481102602185978
23522609 53 18051728630891779449
23569914 2 12687092724657364102
2748736 6 8718553787607889263
2838139 119 11314324849043657946
32027 91 18271798077844593607
3472631 163 7997967972713330200
392239 28 16271626920145114236
393628 194 10665219333650875735
439807 62 18409451388639293031
4435113 14 18044388338414494051
44802255 64 13263835879834329042
44880168 125 18341325687380440263
45266715 3 17312821581414220250
46194498 28 17458903876442309893
5104073 3 17489870431632518001
5718773 13 18336543833400327206
5874358 3 16806993353048177818
6058803 2 18193865719823487620
7970288 3 18410291410816496567

> <PUBCHEM_SHAPE_MULTIPOLES>
604.28
19.32
5.05
1.64
8.54
2.07
0.59
28.8
-1.11
-0.05
-0.62
0.11
-0.65
-0.82

> <PUBCHEM_SHAPE_SELFOVERLAP>
1302.165

> <PUBCHEM_SHAPE_VOLUME>
332.4

> <PUBCHEM_COORDINATE_TYPE>
2
5
10

$$$$
