11911723
  -OEChem-12032416383D

 63 67  0     1  0  0  0  0  0999 V2000
   -1.7451    3.8016    1.1270 O   0  0  0  0  0  0  0  0  0  0  0  0
   -0.7093    0.9644    1.9108 O   0  0  0  0  0  0  0  0  0  0  0  0
   -5.4554    0.4630    1.8823 O   0  0  0  0  0  0  0  0  0  0  0  0
   -3.5183    0.6423    0.6197 N   0  0  0  0  0  0  0  0  0  0  0  0
    0.8746    3.2719   -0.4335 N   0  0  0  0  0  0  0  0  0  0  0  0
    2.4824    1.5667   -0.5511 N   0  0  0  0  0  0  0  0  0  0  0  0
    2.2310    3.1560   -2.3448 N   0  0  0  0  0  0  0  0  0  0  0  0
    5.8603   -3.4986    1.2145 N   0  0  0  0  0  0  0  0  0  0  0  0
   -0.6219    1.7463    0.7076 C   0  0  1  0  0  0  0  0  0  0  0  0
   -1.9328    2.4939    0.5608 C   0  0  1  0  0  0  0  0  0  0  0  0
   -2.9076    1.6948    1.3951 C   0  0  2  0  0  0  0  0  0  0  0  0
    0.4103    2.8376    0.8658 C   0  0  2  0  0  0  0  0  0  0  0  0
   -0.3779    3.9461    1.5391 C   0  0  0  0  0  0  0  0  0  0  0  0
   -2.0146    1.1285    2.4847 C   0  0  0  0  0  0  0  0  0  0  0  0
   -4.7595    0.1080    0.9346 C   0  0  0  0  0  0  0  0  0  0  0  0
    1.8928    2.6462   -1.1306 C   0  0  0  0  0  0  0  0  0  0  0  0
   -5.2379   -0.9883    0.0535 C   0  0  0  0  0  0  0  0  0  0  0  0
    3.4711    0.9813   -1.2580 C   0  0  0  0  0  0  0  0  0  0  0  0
   -6.1145   -1.9215    0.5668 C   0  0  0  0  0  0  0  0  0  0  0  0
   -4.7915   -1.0369   -1.2510 C   0  0  0  0  0  0  0  0  0  0  0  0
    3.2275    2.5218   -2.9968 C   0  0  0  0  0  0  0  0  0  0  0  0
    3.8901    1.4192   -2.4978 C   0  0  0  0  0  0  0  0  0  0  0  0
    4.0823   -0.1630   -0.6253 C   0  0  0  0  0  0  0  0  0  0  0  0
   -6.5648   -2.9496   -0.2615 C   0  0  0  0  0  0  0  0  0  0  0  0
   -5.2420   -2.0650   -2.0792 C   0  0  0  0  0  0  0  0  0  0  0  0
   -6.1285   -3.0214   -1.5845 C   0  0  0  0  0  0  0  0  0  0  0  0
    3.3355   -0.9689    0.2369 C   0  0  0  0  0  0  0  0  0  0  0  0
    5.4219   -0.4696   -0.8741 C   0  0  0  0  0  0  0  0  0  0  0  0
   -6.6095   -4.1215   -2.4692 C   0  0  0  0  0  0  0  0  0  0  0  0
    3.9254   -2.0759    0.8472 C   0  0  0  0  0  0  0  0  0  0  0  0
    6.0117   -1.5766   -0.2639 C   0  0  0  0  0  0  0  0  0  0  0  0
    5.2635   -2.3797    0.5968 C   0  0  0  0  0  0  0  0  0  0  0  0
    5.4165   -3.9382    2.5224 C   0  0  0  0  0  0  0  0  0  0  0  0
    6.9343   -4.2146    0.5556 C   0  0  0  0  0  0  0  0  0  0  0  0
   -0.4351    1.0514   -0.1175 H   0  0  0  0  0  0  0  0  0  0  0  0
   -2.2365    2.6281   -0.4825 H   0  0  0  0  0  0  0  0  0  0  0  0
    1.2547    2.5573    1.5060 H   0  0  0  0  0  0  0  0  0  0  0  0
   -3.6982    2.3127    1.8345 H   0  0  0  0  0  0  0  0  0  0  0  0
   -0.0298    4.9537    1.2912 H   0  0  0  0  0  0  0  0  0  0  0  0
   -0.3556    3.8347    2.6288 H   0  0  0  0  0  0  0  0  0  0  0  0
   -1.9166    1.8345    3.3167 H   0  0  0  0  0  0  0  0  0  0  0  0
   -2.3562    0.1695    2.8859 H   0  0  0  0  0  0  0  0  0  0  0  0
   -2.9504    0.2207   -0.1078 H   0  0  0  0  0  0  0  0  0  0  0  0
    0.4075    4.0427   -0.8975 H   0  0  0  0  0  0  0  0  0  0  0  0
   -6.4595   -1.8830    1.5957 H   0  0  0  0  0  0  0  0  0  0  0  0
   -4.1296   -0.2940   -1.6835 H   0  0  0  0  0  0  0  0  0  0  0  0
    3.4830    2.9352   -3.9666 H   0  0  0  0  0  0  0  0  0  0  0  0
    4.6654    0.9445   -3.0853 H   0  0  0  0  0  0  0  0  0  0  0  0
   -7.2532   -3.6907    0.1363 H   0  0  0  0  0  0  0  0  0  0  0  0
   -4.8995   -2.1073   -3.1097 H   0  0  0  0  0  0  0  0  0  0  0  0
    2.2867   -0.7678    0.4431 H   0  0  0  0  0  0  0  0  0  0  0  0
    6.0487    0.1443   -1.5155 H   0  0  0  0  0  0  0  0  0  0  0  0
   -6.6501   -3.7987   -3.5151 H   0  0  0  0  0  0  0  0  0  0  0  0
   -7.6212   -4.4373   -2.1923 H   0  0  0  0  0  0  0  0  0  0  0  0
   -5.9398   -4.9839   -2.3942 H   0  0  0  0  0  0  0  0  0  0  0  0
    3.3116   -2.6890    1.5010 H   0  0  0  0  0  0  0  0  0  0  0  0
    7.0604   -1.7758   -0.4661 H   0  0  0  0  0  0  0  0  0  0  0  0
    6.1685   -4.5749    3.0017 H   0  0  0  0  0  0  0  0  0  0  0  0
    5.2476   -3.0896    3.1949 H   0  0  0  0  0  0  0  0  0  0  0  0
    4.4936   -4.5221    2.4429 H   0  0  0  0  0  0  0  0  0  0  0  0
    7.8863   -3.6884    0.6818 H   0  0  0  0  0  0  0  0  0  0  0  0
    7.0549   -5.2194    0.9760 H   0  0  0  0  0  0  0  0  0  0  0  0
    6.7341   -4.3434   -0.5141 H   0  0  0  0  0  0  0  0  0  0  0  0
  1 10  1  0  0  0  0
  1 13  1  0  0  0  0
  2  9  1  0  0  0  0
  2 14  1  0  0  0  0
  3 15  2  0  0  0  0
  4 11  1  0  0  0  0
  4 15  1  0  0  0  0
  4 43  1  0  0  0  0
  5 12  1  0  0  0  0
  5 16  1  0  0  0  0
  5 44  1  0  0  0  0
  6 16  1  0  0  0  0
  6 18  2  0  0  0  0
  7 16  2  0  0  0  0
  7 21  1  0  0  0  0
  8 32  1  0  0  0  0
  8 33  1  0  0  0  0
  8 34  1  0  0  0  0
  9 10  1  0  0  0  0
  9 12  1  0  0  0  0
  9 35  1  0  0  0  0
 10 11  1  0  0  0  0
 10 36  1  0  0  0  0
 11 14  1  0  0  0  0
 11 38  1  0  0  0  0
 12 13  1  0  0  0  0
 12 37  1  0  0  0  0
 13 39  1  0  0  0  0
 13 40  1  0  0  0  0
 14 41  1  0  0  0  0
 14 42  1  0  0  0  0
 15 17  1  0  0  0  0
 17 19  2  0  0  0  0
 17 20  1  0  0  0  0
 18 22  1  0  0  0  0
 18 23  1  0  0  0  0
 19 24  1  0  0  0  0
 19 45  1  0  0  0  0
 20 25  2  0  0  0  0
 20 46  1  0  0  0  0
 21 22  2  0  0  0  0
 21 47  1  0  0  0  0
 22 48  1  0  0  0  0
 23 27  2  0  0  0  0
 23 28  1  0  0  0  0
 24 26  2  0  0  0  0
 24 49  1  0  0  0  0
 25 26  1  0  0  0  0
 25 50  1  0  0  0  0
 26 29  1  0  0  0  0
 27 30  1  0  0  0  0
 27 51  1  0  0  0  0
 28 31  2  0  0  0  0
 28 52  1  0  0  0  0
 29 53  1  0  0  0  0
 29 54  1  0  0  0  0
 29 55  1  0  0  0  0
 30 32  2  0  0  0  0
 30 56  1  0  0  0  0
 31 32  1  0  0  0  0
 31 57  1  0  0  0  0
 33 58  1  0  0  0  0
 33 59  1  0  0  0  0
 33 60  1  0  0  0  0
 34 61  1  0  0  0  0
 34 62  1  0  0  0  0
 34 63  1  0  0  0  0
M  END
> <PUBCHEM_COMPOUND_CID>
11911723

> <PUBCHEM_CONFORMER_RMSD>
1

> <PUBCHEM_CONFORMER_DIVERSEORDER>
1
50
95
115
109
131
39
92
121
80
142
108
153
4
57
97
75
41
70
45
85
132
130
136
124
10
36
25
84
9
83
14
65
64
123
12
138
52
35
101
150
59
29
61
62
122
156
151
15
103
63
98
87
18
113
135
24
102
137
145
94
34
120
73
107
6
119
23
38
5
93
128
118
32
86
82
111
46
19
26
67
100
88
96
158
106
129
20
90
78
21
116
71
114
149
146
31
76
11
144
148
58
69
33
48
72
89
91
16
157
117
7
40
154
56
68
143
55
28
8
152
66
51
3
139
30
81
49
140
125
77
60
54
27
104
44
105
17
79
126
110
112
42
53
47
141
74
127
134
99
133
43
147
155
2
37
13
22

> <PUBCHEM_MMFF94_PARTIAL_CHARGES>
45
1 -0.56
10 0.28
11 0.3
12 0.37
13 0.28
14 0.28
15 0.54
16 0.72
17 0.09
18 0.31
19 -0.15
2 -0.56
20 -0.15
21 0.16
22 -0.15
24 -0.15
25 -0.15
26 -0.14
27 -0.15
28 -0.15
29 0.14
3 -0.57
30 -0.15
31 -0.15
32 0.1
33 0.37
34 0.37
4 -0.73
43 0.37
44 0.4
45 0.15
46 0.15
47 0.15
48 0.15
49 0.15
5 -0.87
50 0.15
51 0.15
52 0.15
56 0.15
57 0.15
6 -0.62
7 -0.62
8 -0.84
9 0.28

> <PUBCHEM_EFFECTIVE_ROTOR_COUNT>
8.2

> <PUBCHEM_PHARMACOPHORE_FEATURES>
13
1 1 acceptor
1 2 acceptor
1 3 acceptor
1 4 donor
1 5 donor
1 6 acceptor
1 8 cation
4 5 6 7 16 cation
5 1 9 10 12 13 rings
5 2 9 10 11 14 rings
6 17 19 20 24 25 26 rings
6 23 27 28 30 31 32 rings
6 6 7 16 18 21 22 rings

> <PUBCHEM_HEAVY_ATOM_COUNT>
34

> <PUBCHEM_ATOM_DEF_STEREO_COUNT>
4

> <PUBCHEM_ATOM_UDEF_STEREO_COUNT>
0

> <PUBCHEM_BOND_DEF_STEREO_COUNT>
0

> <PUBCHEM_BOND_UDEF_STEREO_COUNT>
0

> <PUBCHEM_ISOTOPIC_ATOM_COUNT>
0

> <PUBCHEM_COMPONENT_COUNT>
1

> <PUBCHEM_CACTVS_TAUTO_COUNT>
6

> <PUBCHEM_CONFORMER_ID>
00B5C22B00000001

> <PUBCHEM_MMFF94_ENERGY>
120.2291

> <PUBCHEM_FEATURE_SELFOVERLAP>
66.679

> <PUBCHEM_SHAPE_FINGERPRINT>
10556698 54 15720489050227156423
10622 236 18334858273247342874
10908659 184 18129398119313859663
11069576 57 18260842513725718036
11135609 149 18187916300795936396
11135926 11 17461476695708989964
11227150 75 18263626451134166378
11478447 58 17909251817387608246
11497681 19 18338238142902665238
11607047 403 18198327654526098704
11828042 38 17822578325641002251
12166972 35 18260827102966471382
12559416 138 18115599140958341442
12977781 61 18125125365008524313
131258 38 18123739009873557958
14040221 275 15554438596998769606
14068700 675 18339359669625075664
14340393 91 17823397354570755255
15320294 125 18197230157037601633
15419009 47 17897435100162616861
15968369 26 17829319542550114088
16989713 51 17755020797099567342
17324776 126 18335976463673357994
19303781 99 18187931633823804546
19315092 285 18408887368737888300
19319366 153 18049165759085524012
20156587 76 17751330977382735152
20775438 99 18118675767106581690
208703 8 18272657865108125918
21458453 9 15123212373524140268
21585483 132 18270391828037711911
25025965 108 17535177853678177226
25222932 49 17986956434641795676
4015057 19 17822305603416346801
4017518 198 17113257737596088164
439807 62 18337396041275267423
46194498 28 15648490885540997788
463206 1 18340218478295232313
50009960 94 17988061370665131347
57527295 17 18267604548696898673
59025328 239 17894633643319369212
6058803 2 18193584236209297924
6201460 15 18337672996997726442
6636735 143 14404912388619704999
6677587 24 16809825994483195949
6691757 9 17769097843536606241
96874 4 18413385445169470063
9831354 38 18191854828972611715

> <PUBCHEM_SHAPE_MULTIPOLES>
657.19
19.47
6.33
2.69
9.14
1.63
-0.89
31.15
-3.27
-2.79
0.47
-0.08
-0.42
-9.54

> <PUBCHEM_SHAPE_SELFOVERLAP>
1434.997

> <PUBCHEM_SHAPE_VOLUME>
357.2

> <PUBCHEM_COORDINATE_TYPE>
2
5
10

$$$$
