75536399
  -OEChem-12032416303D

 62 65  0     1  0  0  0  0  0999 V2000
    3.6347   -0.2158    0.9581 O   0  0  0  0  0  0  0  0  0  0  0  0
    6.2932    0.5848    1.9479 O   0  0  0  0  0  0  0  0  0  0  0  0
    0.0185   -2.4970   -1.4396 O   0  0  0  0  0  0  0  0  0  0  0  0
   -4.2810    2.4855   -0.3063 O   0  0  0  0  0  0  0  0  0  0  0  0
   -5.8277   -1.5346    0.6821 O   0  0  0  0  0  0  0  0  0  0  0  0
    2.0299    1.9753    0.0966 N   0  0  0  0  0  0  0  0  0  0  0  0
    1.4013   -2.6194   -1.5022 N   0  0  0  0  0  0  0  0  0  0  0  0
    4.1754    1.1115    0.9232 C   0  0  1  0  0  0  0  0  0  0  0  0
    5.6994    1.0891    0.7486 C   0  0  2  0  0  0  0  0  0  0  0  0
    3.9588   -1.0344   -0.1682 C   0  0  1  0  0  0  0  0  0  0  0  0
    6.1394    0.1889   -0.4028 C   0  0  0  0  0  0  0  0  0  0  0  0
    5.4730   -1.1807   -0.3101 C   0  0  0  0  0  0  0  0  0  0  0  0
    3.4675    1.9667   -0.1255 C   0  0  0  0  0  0  0  0  0  0  0  0
    3.3003   -2.3917    0.0470 C   0  0  0  0  0  0  0  0  0  0  0  0
    1.8282   -2.3529   -0.2645 C   0  0  0  0  0  0  0  0  0  0  0  0
    1.3170    2.3786   -1.1088 C   0  0  0  0  0  0  0  0  0  0  0  0
    0.7706   -2.0585    0.6131 C   0  0  0  0  0  0  0  0  0  0  0  0
   -0.1732    2.4071   -0.8958 C   0  0  0  0  0  0  0  0  0  0  0  0
   -0.3450   -2.1626   -0.1749 C   0  0  0  0  0  0  0  0  0  0  0  0
   -1.7528   -2.0022    0.0460 C   0  0  0  0  0  0  0  0  0  0  0  0
   -1.0066    1.6161   -1.6867 C   0  0  0  0  0  0  0  0  0  0  0  0
   -0.7204    3.2245    0.0932 C   0  0  0  0  0  0  0  0  0  0  0  0
   -2.3870    1.6427   -1.4888 C   0  0  0  0  0  0  0  0  0  0  0  0
   -2.1009    3.2512    0.2911 C   0  0  0  0  0  0  0  0  0  0  0  0
   -2.2093   -1.1112    1.0173 C   0  0  0  0  0  0  0  0  0  0  0  0
   -2.6658   -2.7365   -0.7110 C   0  0  0  0  0  0  0  0  0  0  0  0
   -2.9341    2.4603   -0.4999 C   0  0  0  0  0  0  0  0  0  0  0  0
   -3.5787   -0.9548    1.2318 C   0  0  0  0  0  0  0  0  0  0  0  0
   -4.0350   -2.5802   -0.4965 C   0  0  0  0  0  0  0  0  0  0  0  0
   -4.4915   -1.6893    0.4750 C   0  0  0  0  0  0  0  0  0  0  0  0
   -4.7731    3.3440    0.7219 C   0  0  0  0  0  0  0  0  0  0  0  0
   -6.2252   -0.6047    1.6888 C   0  0  0  0  0  0  0  0  0  0  0  0
    3.9568    1.5345    1.9126 H   0  0  0  0  0  0  0  0  0  0  0  0
    6.0820    2.1059    0.6065 H   0  0  0  0  0  0  0  0  0  0  0  0
    3.5542   -0.5788   -1.0799 H   0  0  0  0  0  0  0  0  0  0  0  0
    7.2276    0.0559   -0.3934 H   0  0  0  0  0  0  0  0  0  0  0  0
    5.8779    0.6551   -1.3599 H   0  0  0  0  0  0  0  0  0  0  0  0
    5.7219   -1.7748   -1.1968 H   0  0  0  0  0  0  0  0  0  0  0  0
    5.8768   -1.7111    0.5617 H   0  0  0  0  0  0  0  0  0  0  0  0
    3.6952    1.5873   -1.1276 H   0  0  0  0  0  0  0  0  0  0  0  0
    3.8460    2.9947   -0.0801 H   0  0  0  0  0  0  0  0  0  0  0  0
    3.4332   -2.7251    1.0841 H   0  0  0  0  0  0  0  0  0  0  0  0
    3.7656   -3.1484   -0.5978 H   0  0  0  0  0  0  0  0  0  0  0  0
    1.7239    1.0383    0.3611 H   0  0  0  0  0  0  0  0  0  0  0  0
    7.2585    0.6228    1.8364 H   0  0  0  0  0  0  0  0  0  0  0  0
    1.5571    1.6938   -1.9323 H   0  0  0  0  0  0  0  0  0  0  0  0
    1.6330    3.3816   -1.4231 H   0  0  0  0  0  0  0  0  0  0  0  0
    0.8179   -1.8089    1.6631 H   0  0  0  0  0  0  0  0  0  0  0  0
   -0.5955    0.9715   -2.4591 H   0  0  0  0  0  0  0  0  0  0  0  0
   -0.0836    3.8504    0.7130 H   0  0  0  0  0  0  0  0  0  0  0  0
   -3.0311    1.0223   -2.1061 H   0  0  0  0  0  0  0  0  0  0  0  0
   -2.4589    3.9089    1.0757 H   0  0  0  0  0  0  0  0  0  0  0  0
   -1.5164   -0.5230    1.6144 H   0  0  0  0  0  0  0  0  0  0  0  0
   -2.3382   -3.4432   -1.4697 H   0  0  0  0  0  0  0  0  0  0  0  0
   -3.8644   -0.2433    1.9992 H   0  0  0  0  0  0  0  0  0  0  0  0
   -4.7416   -3.1555   -1.0884 H   0  0  0  0  0  0  0  0  0  0  0  0
   -5.8628    3.2389    0.7361 H   0  0  0  0  0  0  0  0  0  0  0  0
   -4.5557    4.3957    0.5068 H   0  0  0  0  0  0  0  0  0  0  0  0
   -4.4099    3.0376    1.7088 H   0  0  0  0  0  0  0  0  0  0  0  0
   -7.3197   -0.6088    1.7186 H   0  0  0  0  0  0  0  0  0  0  0  0
   -5.9163    0.4156    1.4384 H   0  0  0  0  0  0  0  0  0  0  0  0
   -5.8770   -0.9121    2.6807 H   0  0  0  0  0  0  0  0  0  0  0  0
  1  8  1  0  0  0  0
  1 10  1  0  0  0  0
  2  9  1  0  0  0  0
  2 45  1  0  0  0  0
  3  7  1  0  0  0  0
  3 19  1  0  0  0  0
  4 27  1  0  0  0  0
  4 31  1  0  0  0  0
  5 30  1  0  0  0  0
  5 32  1  0  0  0  0
  6 13  1  0  0  0  0
  6 16  1  0  0  0  0
  6 44  1  0  0  0  0
  7 15  2  0  0  0  0
  8  9  1  0  0  0  0
  8 13  1  0  0  0  0
  8 33  1  0  0  0  0
  9 11  1  0  0  0  0
  9 34  1  0  0  0  0
 10 12  1  0  0  0  0
 10 14  1  0  0  0  0
 10 35  1  0  0  0  0
 11 12  1  0  0  0  0
 11 36  1  0  0  0  0
 11 37  1  0  0  0  0
 12 38  1  0  0  0  0
 12 39  1  0  0  0  0
 13 40  1  0  0  0  0
 13 41  1  0  0  0  0
 14 15  1  0  0  0  0
 14 42  1  0  0  0  0
 14 43  1  0  0  0  0
 15 17  1  0  0  0  0
 16 18  1  0  0  0  0
 16 46  1  0  0  0  0
 16 47  1  0  0  0  0
 17 19  2  0  0  0  0
 17 48  1  0  0  0  0
 18 21  2  0  0  0  0
 18 22  1  0  0  0  0
 19 20  1  0  0  0  0
 20 25  2  0  0  0  0
 20 26  1  0  0  0  0
 21 23  1  0  0  0  0
 21 49  1  0  0  0  0
 22 24  2  0  0  0  0
 22 50  1  0  0  0  0
 23 27  2  0  0  0  0
 23 51  1  0  0  0  0
 24 27  1  0  0  0  0
 24 52  1  0  0  0  0
 25 28  1  0  0  0  0
 25 53  1  0  0  0  0
 26 29  2  0  0  0  0
 26 54  1  0  0  0  0
 28 30  2  0  0  0  0
 28 55  1  0  0  0  0
 29 30  1  0  0  0  0
 29 56  1  0  0  0  0
 31 57  1  0  0  0  0
 31 58  1  0  0  0  0
 31 59  1  0  0  0  0
 32 60  1  0  0  0  0
 32 61  1  0  0  0  0
 32 62  1  0  0  0  0
M  END
> <PUBCHEM_COMPOUND_CID>
75536399

> <PUBCHEM_CONFORMER_RMSD>
1

> <PUBCHEM_CONFORMER_DIVERSEORDER>
1
113
42
60
109
104
131
78
142
163
58
54
16
73
55
46
101
95
159
128
99
34
20
152
96
80
155
61
67
139
133
149
29
108
47
91
62
98
3
122
33
132
77
158
52
86
63
76
88
82
103
5
48
136
65
141
94
36
153
19
6
137
90
130
28
26
111
102
23
92
144
106
127
150
72
64
119
70
126
124
107
105
115
79
51
50
118
97
134
161
147
17
123
35
129
22
120
151
114
43
2
162
160
100
125
116
39
24
56
59
8
68
135
143
4
74
93
138
140
146
9
110
154
69
57
30
157
71
25
37
83
44
40
14
10
12
27
21
66
112
31
85
53
45
156
32
41
18
49
87
89
84
75
7
148
145
38
117
13
11
15
121
81

> <PUBCHEM_MMFF94_PARTIAL_CHARGES>
41
1 -0.56
10 0.28
13 0.27
14 0.18
15 0.11
16 0.41
17 -0.15
18 -0.14
19 0.09
2 -0.68
20 0.05
21 -0.15
22 -0.15
23 -0.15
24 -0.15
25 -0.15
26 -0.15
27 0.08
28 -0.15
29 -0.15
3 -0.02
30 0.08
31 0.28
32 0.28
4 -0.36
44 0.36
45 0.4
48 0.15
49 0.15
5 -0.36
50 0.15
51 0.15
52 0.15
53 0.15
54 0.15
55 0.15
56 0.15
6 -0.9
7 -0.41
8 0.28
9 0.28

> <PUBCHEM_EFFECTIVE_ROTOR_COUNT>
10.2

> <PUBCHEM_PHARMACOPHORE_FEATURES>
12
1 1 acceptor
1 2 acceptor
1 2 donor
1 4 acceptor
1 5 acceptor
1 6 cation
1 6 donor
1 7 acceptor
5 3 7 15 17 19 rings
6 1 8 9 10 11 12 rings
6 18 21 22 23 24 27 rings
6 20 25 26 28 29 30 rings

> <PUBCHEM_HEAVY_ATOM_COUNT>
32

> <PUBCHEM_ATOM_DEF_STEREO_COUNT>
3

> <PUBCHEM_ATOM_UDEF_STEREO_COUNT>
0

> <PUBCHEM_BOND_DEF_STEREO_COUNT>
0

> <PUBCHEM_BOND_UDEF_STEREO_COUNT>
0

> <PUBCHEM_ISOTOPIC_ATOM_COUNT>
0

> <PUBCHEM_COMPONENT_COUNT>
1

> <PUBCHEM_CACTVS_TAUTO_COUNT>
1

> <PUBCHEM_CONFORMER_ID>
0480980F00000001

> <PUBCHEM_MMFF94_ENERGY>
83.4514

> <PUBCHEM_FEATURE_SELFOVERLAP>
60.9

> <PUBCHEM_SHAPE_FINGERPRINT>
10006869 2 18263913350839136055
10670039 82 18261123976286973542
10864689 126 17833840369391710717
10939801 23 18192151723229827040
11513181 2 18058724702302161095
12107698 1 18187641449085297320
12422481 6 18337122215334461897
12788726 201 18121229924486873988
13140716 1 18191864518059432959
13402501 40 18409448089550131832
13642711 20 16630519669934459035
14394314 77 18123195859614323953
14840074 17 18338524156472676575
15001296 14 18046910652157582616
15840311 113 17630073494004117691
15968369 153 18343864424398519957
17980427 23 18059582446775339783
20764821 26 18336544919562485198
21360443 126 18114174182013980365
24941158 1 16700912479061601310
3052486 1 18260268534596707420
338550 245 18333740134162151916
350125 39 18410860974887288360
392239 28 18409725200866645110
463206 1 18120094137216896171
469060 322 16732986388358206559
508706 21 18409443696073076710
56638632 10 17773303741573448576
653340 110 18412542094207638616

> <PUBCHEM_SHAPE_MULTIPOLES>
619.24
13.49
4.8
1.38
7.09
1.66
0.01
-0.42
5.8
-4.05
-0.88
-0.2
0.06
0.86

> <PUBCHEM_SHAPE_SELFOVERLAP>
1320.446

> <PUBCHEM_SHAPE_VOLUME>
345.4

> <PUBCHEM_COORDINATE_TYPE>
2
5
10

$$$$
