40779421
  -OEChem-12032416163D

 65 69  0     1  0  0  0  0  0999 V2000
   -3.2655    2.0095   -1.6008 O   0  0  0  0  0  0  0  0  0  0  0  0
   -5.0990    0.1089   -1.0775 O   0  0  0  0  0  0  0  0  0  0  0  0
    1.0111    3.2628   -0.4543 N   0  0  2  0  0  0  0  0  0  0  0  0
    5.0174    0.7334   -0.0007 N   0  0  0  0  0  0  0  0  0  0  0  0
   -1.4873    0.5588   -1.2137 N   0  0  0  0  0  0  0  0  0  0  0  0
    5.5456   -0.4801   -0.2347 N   0  0  0  0  0  0  0  0  0  0  0  0
    1.6971    1.8426    1.6183 C   0  0  2  0  0  0  0  0  0  0  0  0
    2.8836    1.9587    0.6217 C   0  0  2  0  0  0  0  0  0  0  0  0
   -0.0087    2.2117   -0.1982 C   0  0  2  0  0  0  0  0  0  0  0  0
    0.4790    1.2337    0.8922 C   0  0  0  0  0  0  0  0  0  0  0  0
    2.3412    2.6395   -0.6674 C   0  0  0  0  0  0  0  0  0  0  0  0
    1.3119    3.2821    2.0215 C   0  0  0  0  0  0  0  0  0  0  0  0
    1.0906    4.1220    0.7514 C   0  0  0  0  0  0  0  0  0  0  0  0
    3.6911    0.7052    0.3166 C   0  0  0  0  0  0  0  0  0  0  0  0
   -0.4248    1.4798   -1.4759 C   0  0  0  0  0  0  0  0  0  0  0  0
    3.3263   -0.6186    0.2879 C   0  0  0  0  0  0  0  0  0  0  0  0
    4.6921   -2.7928   -0.2312 C   0  0  0  0  0  0  0  0  0  0  0  0
    4.5078   -1.3019   -0.0568 C   0  0  0  0  0  0  0  0  0  0  0  0
    4.3832   -3.5796    1.0551 C   0  0  0  0  0  0  0  0  0  0  0  0
    3.8081   -3.4225   -1.3278 C   0  0  0  0  0  0  0  0  0  0  0  0
    3.7495   -4.8756    0.5729 C   0  0  0  0  0  0  0  0  0  0  0  0
    2.9128   -4.4276   -0.6124 C   0  0  0  0  0  0  0  0  0  0  0  0
    5.8611    1.9014   -0.1033 C   0  0  0  0  0  0  0  0  0  0  0  0
   -2.8362    0.8997   -1.2977 C   0  0  0  0  0  0  0  0  0  0  0  0
   -3.7426   -0.2676   -0.9698 C   0  0  0  0  0  0  0  0  0  0  0  0
   -5.9968   -0.5395   -0.2626 C   0  0  0  0  0  0  0  0  0  0  0  0
   -5.7559   -1.8553    0.1327 C   0  0  0  0  0  0  0  0  0  0  0  0
   -7.1483    0.1186    0.1688 C   0  0  0  0  0  0  0  0  0  0  0  0
   -6.6668   -2.5131    0.9593 C   0  0  0  0  0  0  0  0  0  0  0  0
   -8.0592   -0.5390    0.9955 C   0  0  0  0  0  0  0  0  0  0  0  0
   -7.8184   -1.8549    1.3908 C   0  0  0  0  0  0  0  0  0  0  0  0
    1.9654    1.2477    2.4977 H   0  0  0  0  0  0  0  0  0  0  0  0
    3.5885    2.6614    1.0910 H   0  0  0  0  0  0  0  0  0  0  0  0
   -0.9139    2.7122    0.1772 H   0  0  0  0  0  0  0  0  0  0  0  0
    0.7179    0.2556    0.4729 H   0  0  0  0  0  0  0  0  0  0  0  0
   -0.3294    1.0723    1.6169 H   0  0  0  0  0  0  0  0  0  0  0  0
    3.0471    3.4176   -0.9866 H   0  0  0  0  0  0  0  0  0  0  0  0
    2.3026    1.9377   -1.5086 H   0  0  0  0  0  0  0  0  0  0  0  0
    2.1018    3.7333    2.6333 H   0  0  0  0  0  0  0  0  0  0  0  0
    0.3994    3.2672    2.6297 H   0  0  0  0  0  0  0  0  0  0  0  0
    0.1722    4.7136    0.8513 H   0  0  0  0  0  0  0  0  0  0  0  0
    1.8998    4.8539    0.6335 H   0  0  0  0  0  0  0  0  0  0  0  0
   -0.7546    2.1988   -2.2348 H   0  0  0  0  0  0  0  0  0  0  0  0
    0.3984    0.8976   -1.9020 H   0  0  0  0  0  0  0  0  0  0  0  0
    2.3605   -1.0526    0.4921 H   0  0  0  0  0  0  0  0  0  0  0  0
    5.7405   -2.9793   -0.5047 H   0  0  0  0  0  0  0  0  0  0  0  0
    3.6768   -3.0466    1.7029 H   0  0  0  0  0  0  0  0  0  0  0  0
    5.2872   -3.7650    1.6447 H   0  0  0  0  0  0  0  0  0  0  0  0
    4.4474   -3.9533   -2.0445 H   0  0  0  0  0  0  0  0  0  0  0  0
    3.2205   -2.6940   -1.8960 H   0  0  0  0  0  0  0  0  0  0  0  0
   -1.2381   -0.3906   -0.9510 H   0  0  0  0  0  0  0  0  0  0  0  0
    3.1487   -5.3582    1.3490 H   0  0  0  0  0  0  0  0  0  0  0  0
    4.5244   -5.5803    0.2485 H   0  0  0  0  0  0  0  0  0  0  0  0
    2.6249   -5.2608   -1.2597 H   0  0  0  0  0  0  0  0  0  0  0  0
    1.9981   -3.9334   -0.2640 H   0  0  0  0  0  0  0  0  0  0  0  0
    5.9636    2.3420    0.8913 H   0  0  0  0  0  0  0  0  0  0  0  0
    6.8451    1.6076   -0.4790 H   0  0  0  0  0  0  0  0  0  0  0  0
    5.4031    2.6072   -0.7996 H   0  0  0  0  0  0  0  0  0  0  0  0
   -3.4810   -0.5784    0.0506 H   0  0  0  0  0  0  0  0  0  0  0  0
   -3.5312   -1.0804   -1.6740 H   0  0  0  0  0  0  0  0  0  0  0  0
   -4.8852   -2.4108   -0.2030 H   0  0  0  0  0  0  0  0  0  0  0  0
   -7.3408    1.1437   -0.1359 H   0  0  0  0  0  0  0  0  0  0  0  0
   -6.4828   -3.5398    1.2624 H   0  0  0  0  0  0  0  0  0  0  0  0
   -8.9561   -0.0268    1.3313 H   0  0  0  0  0  0  0  0  0  0  0  0
   -8.5284   -2.3675    2.0333 H   0  0  0  0  0  0  0  0  0  0  0  0
  1 24  2  0  0  0  0
  2 25  1  0  0  0  0
  2 26  1  0  0  0  0
  3  9  1  0  0  0  0
  3 11  1  0  0  0  0
  3 13  1  0  0  0  0
  4  6  1  0  0  0  0
  4 14  1  0  0  0  0
  4 23  1  0  0  0  0
  5 15  1  0  0  0  0
  5 24  1  0  0  0  0
  5 51  1  0  0  0  0
  6 18  2  0  0  0  0
  7  8  1  0  0  0  0
  7 10  1  0  0  0  0
  7 12  1  0  0  0  0
  7 32  1  0  0  0  0
  8 11  1  0  0  0  0
  8 14  1  0  0  0  0
  8 33  1  0  0  0  0
  9 10  1  0  0  0  0
  9 15  1  0  0  0  0
  9 34  1  0  0  0  0
 10 35  1  0  0  0  0
 10 36  1  0  0  0  0
 11 37  1  0  0  0  0
 11 38  1  0  0  0  0
 12 13  1  0  0  0  0
 12 39  1  0  0  0  0
 12 40  1  0  0  0  0
 13 41  1  0  0  0  0
 13 42  1  0  0  0  0
 14 16  2  0  0  0  0
 15 43  1  0  0  0  0
 15 44  1  0  0  0  0
 16 18  1  0  0  0  0
 16 45  1  0  0  0  0
 17 18  1  0  0  0  0
 17 19  1  0  0  0  0
 17 20  1  0  0  0  0
 17 46  1  0  0  0  0
 19 21  1  0  0  0  0
 19 47  1  0  0  0  0
 19 48  1  0  0  0  0
 20 22  1  0  0  0  0
 20 49  1  0  0  0  0
 20 50  1  0  0  0  0
 21 22  1  0  0  0  0
 21 52  1  0  0  0  0
 21 53  1  0  0  0  0
 22 54  1  0  0  0  0
 22 55  1  0  0  0  0
 23 56  1  0  0  0  0
 23 57  1  0  0  0  0
 23 58  1  0  0  0  0
 24 25  1  0  0  0  0
 25 59  1  0  0  0  0
 25 60  1  0  0  0  0
 26 27  2  0  0  0  0
 26 28  1  0  0  0  0
 27 29  1  0  0  0  0
 27 61  1  0  0  0  0
 28 30  2  0  0  0  0
 28 62  1  0  0  0  0
 29 31  2  0  0  0  0
 29 63  1  0  0  0  0
 30 31  1  0  0  0  0
 30 64  1  0  0  0  0
 31 65  1  0  0  0  0
M  END
> <PUBCHEM_COMPOUND_CID>
40779421

> <PUBCHEM_CONFORMER_RMSD>
1

> <PUBCHEM_CONFORMER_DIVERSEORDER>
1
122
118
18
38
113
80
53
54
101
156
160
93
104
150
108
137
33
13
65
107
98
90
4
134
82
75
112
71
148
19
2
79
45
139
149
57
11
47
36
102
20
26
94
3
140
28
32
157
5
35
49
146
74
9
128
97
14
95
6
56
31
103
39
147
69
153
43
129
125
41
67
7
25
61
135
24
22
62
76
30
12
143
27
158
110
34
124
132
72
73
83
78
151
152
91
87
16
40
81
23
131
105
88
85
117
46
121
60
70
123
44
109
163
42
154
89
66
145
8
99
55
96
21
29
77
116
52
100
119
162
144
136
64
130
120
138
106
133
58
17
63
68
114
161
50
48
59
111
86
115
127
15
84
155
142
92
141
126
10
159
51
37

> <PUBCHEM_MMFF94_PARTIAL_CHARGES>
31
1 -0.57
11 0.27
13 0.27
14 -0.33
15 0.3
16 -0.15
17 0.18
18 0.11
2 -0.36
23 0.26
24 0.57
25 0.34
26 0.08
27 -0.15
28 -0.15
29 -0.15
3 -0.81
30 -0.15
31 -0.15
4 0.31
45 0.15
5 -0.73
51 0.37
6 -0.71
61 0.15
62 0.15
63 0.15
64 0.15
65 0.15
8 0.18
9 0.27

> <PUBCHEM_EFFECTIVE_ROTOR_COUNT>
10.2

> <PUBCHEM_PHARMACOPHORE_FEATURES>
9
1 1 acceptor
1 2 acceptor
1 3 cation
1 5 donor
1 6 acceptor
5 17 19 20 21 22 rings
5 4 6 14 16 18 rings
6 26 27 28 29 30 31 rings
8 3 7 8 9 10 11 12 13 rings

> <PUBCHEM_HEAVY_ATOM_COUNT>
31

> <PUBCHEM_ATOM_DEF_STEREO_COUNT>
3

> <PUBCHEM_ATOM_UDEF_STEREO_COUNT>
0

> <PUBCHEM_BOND_DEF_STEREO_COUNT>
0

> <PUBCHEM_BOND_UDEF_STEREO_COUNT>
0

> <PUBCHEM_ISOTOPIC_ATOM_COUNT>
0

> <PUBCHEM_COMPONENT_COUNT>
1

> <PUBCHEM_CACTVS_TAUTO_COUNT>
2

> <PUBCHEM_CONFORMER_ID>
026E3E9D00000001

> <PUBCHEM_MMFF94_ENERGY>
73.0372

> <PUBCHEM_FEATURE_SELFOVERLAP>
45.679

> <PUBCHEM_SHAPE_FINGERPRINT>
10669705 251 18043539519753800379
10908659 184 18196640822631355643
11103572 155 18337958875064378073
11374522 165 15768664041009014745
117089 54 18267869371715961974
12342043 65 18260825999766407821
12623949 98 18261394481247056541
13008946 62 16957908237745301501
13111901 137 16588319250193940035
13560911 43 18190175699103204170
13782708 43 18114457877820825515
13785724 45 18129392513737089967
13955234 65 18197772400194404080
14251764 30 18335419011303084745
14739800 52 12463303462309413999
15082195 135 10809338949631311053
15352257 5 18260267490777508795
15475509 35 18411981394563814209
15776043 110 18059863870000796635
17492 89 18053095122002208606
19301679 30 18340769234768162105
19319366 153 18341317990714273428
20775530 9 18199453382285816654
22033318 11 17844834528651562609
23569917 315 18266744577151044022
3178227 256 18342176725752930336
345986 75 17560514010941194768
404807 78 17968956304514804526
4435113 14 17895488045632473155
46194498 28 17967809487711010276
6422251 121 18262234409468534739
6700243 42 17168413853655584919
86090 222 18040718078047565827
9831232 110 18260550043785710295

> <PUBCHEM_SHAPE_MULTIPOLES>
606.3
19.66
5.99
1.46
44.08
4.25
0.09
15.93
4.06
-9.88
1.06
0.77
-0.47
2.14

> <PUBCHEM_SHAPE_SELFOVERLAP>
1294.581

> <PUBCHEM_SHAPE_VOLUME>
335.1

> <PUBCHEM_COORDINATE_TYPE>
2
5
10

$$$$
