75536900
  -OEChem-12032416303D

 40 42  0     1  0  0  0  0  0999 V2000
    1.5452    0.0439   -1.6629 S   0  0  0  0  0  0  0  0  0  0  0  0
    6.1011    1.3020    1.8583 F   0  0  0  0  0  0  0  0  0  0  0  0
   -0.8843   -2.7593    1.1069 O   0  0  0  0  0  0  0  0  0  0  0  0
   -2.3681    0.1961   -0.4168 O   0  0  0  0  0  0  0  0  0  0  0  0
    0.8753    1.2838   -1.9839 O   0  0  0  0  0  0  0  0  0  0  0  0
    2.0141   -0.8457   -2.7014 O   0  0  0  0  0  0  0  0  0  0  0  0
    0.5684   -0.8477   -0.5728 N   0  0  2  0  0  0  0  0  0  0  0  0
   -4.0908    0.1905    1.1450 N   0  0  0  0  0  0  0  0  0  0  0  0
   -5.7413    1.4879   -0.7147 N   0  0  0  0  0  0  0  0  0  0  0  0
   -0.1329   -0.0459    0.4772 C   0  0  0  0  0  0  0  0  0  0  0  0
   -1.5979   -0.4628    0.5890 C   0  0  2  0  0  0  0  0  0  0  0  0
    1.1914   -2.0848   -0.0115 C   0  0  0  0  0  0  0  0  0  0  0  0
   -1.8840   -1.9592    0.4848 C   0  0  0  0  0  0  0  0  0  0  0  0
    0.1400   -3.1646    0.1990 C   0  0  0  0  0  0  0  0  0  0  0  0
    2.9097    0.4204   -0.6093 C   0  0  0  0  0  0  0  0  0  0  0  0
    3.9966   -0.4511   -0.5367 C   0  0  0  0  0  0  0  0  0  0  0  0
    2.9012    1.5896    0.1514 C   0  0  0  0  0  0  0  0  0  0  0  0
   -3.6565    0.5178   -0.0882 C   0  0  0  0  0  0  0  0  0  0  0  0
    5.0748   -0.1532    0.2964 C   0  0  0  0  0  0  0  0  0  0  0  0
    3.9795    1.8873    0.9845 C   0  0  0  0  0  0  0  0  0  0  0  0
    5.0663    1.0161    1.0570 C   0  0  0  0  0  0  0  0  0  0  0  0
   -4.4673    1.1550   -1.0017 C   0  0  0  0  0  0  0  0  0  0  0  0
   -5.3649    0.5232    1.4320 C   0  0  0  0  0  0  0  0  0  0  0  0
   -6.1756    1.1605    0.5186 C   0  0  0  0  0  0  0  0  0  0  0  0
    0.3717   -0.1824    1.4413 H   0  0  0  0  0  0  0  0  0  0  0  0
   -0.0943    1.0244    0.2528 H   0  0  0  0  0  0  0  0  0  0  0  0
   -1.8807   -0.1158    1.5925 H   0  0  0  0  0  0  0  0  0  0  0  0
    1.6933   -1.8574    0.9355 H   0  0  0  0  0  0  0  0  0  0  0  0
    1.9360   -2.4919   -0.7020 H   0  0  0  0  0  0  0  0  0  0  0  0
   -2.8257   -2.1796    1.0003 H   0  0  0  0  0  0  0  0  0  0  0  0
   -2.0516   -2.2680   -0.5555 H   0  0  0  0  0  0  0  0  0  0  0  0
   -0.2940   -3.4946   -0.7526 H   0  0  0  0  0  0  0  0  0  0  0  0
    0.6260   -4.0402    0.6431 H   0  0  0  0  0  0  0  0  0  0  0  0
    4.0298   -1.3650   -1.1225 H   0  0  0  0  0  0  0  0  0  0  0  0
    2.0664    2.2833    0.1122 H   0  0  0  0  0  0  0  0  0  0  0  0
    5.9215   -0.8308    0.3527 H   0  0  0  0  0  0  0  0  0  0  0  0
    3.9732    2.7972    1.5773 H   0  0  0  0  0  0  0  0  0  0  0  0
   -4.1222    1.4198   -1.9940 H   0  0  0  0  0  0  0  0  0  0  0  0
   -5.7144    0.2603    2.4227 H   0  0  0  0  0  0  0  0  0  0  0  0
   -7.1993    1.4276    0.7500 H   0  0  0  0  0  0  0  0  0  0  0  0
  1  5  2  0  0  0  0
  1  6  2  0  0  0  0
  1  7  1  0  0  0  0
  1 15  1  0  0  0  0
  2 21  1  0  0  0  0
  3 13  1  0  0  0  0
  3 14  1  0  0  0  0
  4 11  1  0  0  0  0
  4 18  1  0  0  0  0
  7 10  1  0  0  0  0
  7 12  1  0  0  0  0
  8 18  2  0  0  0  0
  8 23  1  0  0  0  0
  9 22  2  0  0  0  0
  9 24  1  0  0  0  0
 10 11  1  0  0  0  0
 10 25  1  0  0  0  0
 10 26  1  0  0  0  0
 11 13  1  0  0  0  0
 11 27  1  0  0  0  0
 12 14  1  0  0  0  0
 12 28  1  0  0  0  0
 12 29  1  0  0  0  0
 13 30  1  0  0  0  0
 13 31  1  0  0  0  0
 14 32  1  0  0  0  0
 14 33  1  0  0  0  0
 15 16  2  0  0  0  0
 15 17  1  0  0  0  0
 16 19  1  0  0  0  0
 16 34  1  0  0  0  0
 17 20  2  0  0  0  0
 17 35  1  0  0  0  0
 18 22  1  0  0  0  0
 19 21  2  0  0  0  0
 19 36  1  0  0  0  0
 20 21  1  0  0  0  0
 20 37  1  0  0  0  0
 22 38  1  0  0  0  0
 23 24  2  0  0  0  0
 23 39  1  0  0  0  0
 24 40  1  0  0  0  0
M  END
> <PUBCHEM_COMPOUND_CID>
75536900

> <PUBCHEM_CONFORMER_RMSD>
0.8

> <PUBCHEM_CONFORMER_DIVERSEORDER>
6
77
189
238
175
212
213
85
118
40
126
69
150
91
165
226
148
62
154
113
236
99
138
107
70
61
182
180
117
232
45
87
72
188
60
94
41
17
176
239
157
153
103
162
216
82
20
185
46
90
73
215
106
81
139
7
159
142
84
26
36
88
230
58
200
211
198
56
80
210
28
231
240
114
22
160
167
74
14
131
95
193
220
155
110
33
222
21
229
71
202
97
124
19
206
195
79
115
111
149
163
52
129
183
235
146
214
10
177
196
241
151
44
187
197
172
156
181
15
109
83
192
100
227
205
67
132
93
134
96
130
31
223
225
184
121
47
68
194
108
170
116
78
65
128
219
158
32
29
30
137
8
23
224
50
169
190
66
43
37
122
208
204
64
3
221
133
140
186
76
199
112
168
55
48
57
34
166
39
152
27
164
143
135
203
234
207
161
18
120
145
101
217
2
119
178
12
86
127
171
75
11
9
42
49
228
54
104
147
24
102
179
237
1
125
144
13
89
173
59
201
218
98
92
123
4
141
38
35
191
174
5
25
233
209
16
105
51
136
63
53

> <PUBCHEM_MMFF94_PARTIAL_CHARGES>
31
1 1.45
10 0.36
11 0.28
12 0.36
13 0.28
14 0.28
15 -0.01
16 -0.15
17 -0.15
18 0.39
19 -0.15
2 -0.19
20 -0.15
21 0.19
22 0.16
23 0.16
24 0.16
3 -0.56
34 0.15
35 0.15
36 0.15
37 0.15
38 0.15
39 0.15
4 -0.36
40 0.15
5 -0.65
6 -0.65
7 -0.85
8 -0.62
9 -0.62

> <PUBCHEM_EFFECTIVE_ROTOR_COUNT>
5.4

> <PUBCHEM_PHARMACOPHORE_FEATURES>
7
1 3 acceptor
1 5 acceptor
1 6 acceptor
1 9 acceptor
6 15 16 17 19 20 21 rings
6 8 9 18 22 23 24 rings
7 3 7 10 11 12 13 14 rings

> <PUBCHEM_HEAVY_ATOM_COUNT>
24

> <PUBCHEM_ATOM_DEF_STEREO_COUNT>
1

> <PUBCHEM_ATOM_UDEF_STEREO_COUNT>
0

> <PUBCHEM_BOND_DEF_STEREO_COUNT>
0

> <PUBCHEM_BOND_UDEF_STEREO_COUNT>
0

> <PUBCHEM_ISOTOPIC_ATOM_COUNT>
0

> <PUBCHEM_COMPONENT_COUNT>
1

> <PUBCHEM_CACTVS_TAUTO_COUNT>
1

> <PUBCHEM_CONFORMER_ID>
04809A0400000006

> <PUBCHEM_MMFF94_ENERGY>
63.2016

> <PUBCHEM_FEATURE_SELFOVERLAP>
35.541

> <PUBCHEM_SHAPE_FINGERPRINT>
10042902 136 11675174686660029041
10319926 262 16950572043309094115
10692045 39 18263636291104552762
10906281 52 17988097680551124456
11069576 57 14260521119276183269
11646440 116 18409740547339168945
11725454 13 18131059450800686462
11954058 11 12396593943978257547
11961588 58 16415467272899630719
12403259 118 17458350745385110373
12403259 415 18339093673373012723
12422481 6 17603580798905923855
12516196 113 9655571903428974793
12633257 1 18335696200129807024
13103583 49 15285358405671175229
13464513 79 9151166541412915164
13533116 47 18270684152175164666
14251757 52 17131285545884843537
14251764 30 13190328050964916552
14251764 38 18127971025638766569
14341114 176 14129065819946536589
144659 39 17988928890098982471
14528608 73 15554444106608229520
14951699 99 18116998986764094300
15061688 2 17917711339997410918
17492 54 14692569961825141914
17913733 40 18338248089524664443
17980427 23 18267018543279209956
1813 80 15213297496340624646
18222031 100 8862655760168997865
193927 3 9583514322381554231
20197701 30 18409445882127300675
20567600 254 18410006624562126385
20871999 31 10879724190350999794
21033648 29 18261101954966682092
21150785 3 17275095108483408117
212916 134 18334573559654378922
21304303 282 18199732812521367911
21403212 168 18263347149579154178
21452121 103 18261954033855083027
21637258 2 12685084904349127448
22149856 69 18118712988563838689
22950370 63 13695583339220920860
23016692 55 10231755595971525075
23402539 116 18411131455074905621
23559900 14 18270701821807452822
2838139 119 17418371398286509336
2916195 48 18344145895428266913
3004659 81 14548470050383768020
329604 57 11312060941542910000
345986 75 14057262204420794636
351380 180 18201716267088507920
4340502 62 18411426098621909499
465052 167 14779271903619643000
474 4 18131635603373026720
495365 180 17988926669748271302
5104073 3 17969512503100916569
5385378 56 18189337875178415139
53917941 68 18341039800950148567
54039377 194 13696133065787969784
58807428 26 18113334219539109418
59755656 215 18261679151384419366
79837 15 18041566965375196747
8509985 295 16805329889684045021

> <PUBCHEM_SHAPE_MULTIPOLES>
452.06
13.37
2.39
1.64
7.75
1.96
-0.7
-9.51
4.59
-0.3
0.54
-0.89
-0.25
1.5

> <PUBCHEM_SHAPE_SELFOVERLAP>
947.961

> <PUBCHEM_SHAPE_VOLUME>
254.8

> <PUBCHEM_COORDINATE_TYPE>
2
5
10

$$$$
