11943210
  -OEChem-12032416313D

 49 51  0     1  0  0  0  0  0999 V2000
   -0.9149   -0.3956   -0.6477 O   0  0  0  0  0  0  0  0  0  0  0  0
    0.4375    1.4304   -0.9056 O   0  0  0  0  0  0  0  0  0  0  0  0
    5.0467    2.3316   -0.4464 O   0  0  0  0  0  0  0  0  0  0  0  0
    5.6992   -2.2290    0.8014 O   0  0  0  0  0  0  0  0  0  0  0  0
   -4.4975    0.1945   -1.4566 N   0  0  2  0  0  0  0  0  0  0  0  0
    1.2869   -0.6516   -0.2546 N   0  0  0  0  0  0  0  0  0  0  0  0
   -5.0129   -1.0412    0.7751 C   0  0  1  0  0  0  0  0  0  0  0  0
   -3.2792   -0.5080   -0.9715 C   0  0  2  0  0  0  0  0  0  0  0  0
   -3.5104   -1.1087    0.4326 C   0  0  0  0  0  0  0  0  0  0  0  0
   -5.4467    0.4390    0.8499 C   0  0  2  0  0  0  0  0  0  0  0  0
   -5.7802   -1.6730   -0.4016 C   0  0  0  0  0  0  0  0  0  0  0  0
   -4.9772    1.1573   -0.4336 C   0  0  0  0  0  0  0  0  0  0  0  0
   -5.5568   -0.8233   -1.6658 C   0  0  0  0  0  0  0  0  0  0  0  0
   -2.0371    0.3849   -1.0112 C   0  0  0  0  0  0  0  0  0  0  0  0
   -4.9337    1.1038    2.0590 C   0  0  0  0  0  0  0  0  0  0  0  0
   -4.5156    1.6456    3.0453 C   0  0  0  0  0  0  0  0  0  0  0  0
    0.3044    0.2449   -0.6274 C   0  0  0  0  0  0  0  0  0  0  0  0
    2.6724   -0.4133   -0.1080 C   0  0  0  0  0  0  0  0  0  0  0  0
    3.5033   -1.4530    0.2782 C   0  0  0  0  0  0  0  0  0  0  0  0
    3.1729    0.8554   -0.3536 C   0  0  0  0  0  0  0  0  0  0  0  0
    4.5402    1.0906   -0.2093 C   0  0  0  0  0  0  0  0  0  0  0  0
    4.8705   -1.2178    0.4227 C   0  0  0  0  0  0  0  0  0  0  0  0
    5.3890    0.0540    0.1789 C   0  0  0  0  0  0  0  0  0  0  0  0
    6.4535    2.5013   -0.2798 C   0  0  0  0  0  0  0  0  0  0  0  0
    7.0858   -1.9186    0.9297 C   0  0  0  0  0  0  0  0  0  0  0  0
   -5.2212   -1.5761    1.7084 H   0  0  0  0  0  0  0  0  0  0  0  0
   -3.0702   -1.3434   -1.6561 H   0  0  0  0  0  0  0  0  0  0  0  0
   -3.1796   -2.1549    0.4396 H   0  0  0  0  0  0  0  0  0  0  0  0
   -2.9265   -0.5873    1.1999 H   0  0  0  0  0  0  0  0  0  0  0  0
   -6.5442    0.4760    0.8905 H   0  0  0  0  0  0  0  0  0  0  0  0
   -5.4303   -2.6988   -0.5691 H   0  0  0  0  0  0  0  0  0  0  0  0
   -6.8512   -1.7272   -0.1742 H   0  0  0  0  0  0  0  0  0  0  0  0
   -4.2095    1.9135   -0.2321 H   0  0  0  0  0  0  0  0  0  0  0  0
   -5.8183    1.7254   -0.8536 H   0  0  0  0  0  0  0  0  0  0  0  0
   -5.2897   -1.4726   -2.5088 H   0  0  0  0  0  0  0  0  0  0  0  0
   -6.4919   -0.3303   -1.9609 H   0  0  0  0  0  0  0  0  0  0  0  0
   -1.8938    0.7782   -2.0250 H   0  0  0  0  0  0  0  0  0  0  0  0
   -2.1264    1.2261   -0.3151 H   0  0  0  0  0  0  0  0  0  0  0  0
   -4.1441    2.1260    3.9200 H   0  0  0  0  0  0  0  0  0  0  0  0
    0.9777   -1.6011   -0.0613 H   0  0  0  0  0  0  0  0  0  0  0  0
    3.1038   -2.4457    0.4692 H   0  0  0  0  0  0  0  0  0  0  0  0
    2.5740    1.7022   -0.6566 H   0  0  0  0  0  0  0  0  0  0  0  0
    6.4474    0.2360    0.2908 H   0  0  0  0  0  0  0  0  0  0  0  0
    7.0216    1.8919   -0.9909 H   0  0  0  0  0  0  0  0  0  0  0  0
    6.6797    3.5478   -0.5100 H   0  0  0  0  0  0  0  0  0  0  0  0
    6.7612    2.3329    0.7580 H   0  0  0  0  0  0  0  0  0  0  0  0
    7.2638   -1.1807    1.7195 H   0  0  0  0  0  0  0  0  0  0  0  0
    7.5933   -2.8389    1.2376 H   0  0  0  0  0  0  0  0  0  0  0  0
    7.5245   -1.6220   -0.0293 H   0  0  0  0  0  0  0  0  0  0  0  0
  1 14  1  0  0  0  0
  1 17  1  0  0  0  0
  2 17  2  0  0  0  0
  3 21  1  0  0  0  0
  3 24  1  0  0  0  0
  4 22  1  0  0  0  0
  4 25  1  0  0  0  0
  5  8  1  0  0  0  0
  5 12  1  0  0  0  0
  5 13  1  0  0  0  0
  6 17  1  0  0  0  0
  6 18  1  0  0  0  0
  6 40  1  0  0  0  0
  7  9  1  0  0  0  0
  7 10  1  0  0  0  0
  7 11  1  0  0  0  0
  7 26  1  0  0  0  0
  8  9  1  0  0  0  0
  8 14  1  0  0  0  0
  8 27  1  0  0  0  0
  9 28  1  0  0  0  0
  9 29  1  0  0  0  0
 10 12  1  0  0  0  0
 10 15  1  0  0  0  0
 10 30  1  0  0  0  0
 11 13  1  0  0  0  0
 11 31  1  0  0  0  0
 11 32  1  0  0  0  0
 12 33  1  0  0  0  0
 12 34  1  0  0  0  0
 13 35  1  0  0  0  0
 13 36  1  0  0  0  0
 14 37  1  0  0  0  0
 14 38  1  0  0  0  0
 15 16  3  0  0  0  0
 16 39  1  0  0  0  0
 18 19  2  0  0  0  0
 18 20  1  0  0  0  0
 19 22  1  0  0  0  0
 19 41  1  0  0  0  0
 20 21  2  0  0  0  0
 20 42  1  0  0  0  0
 21 23  1  0  0  0  0
 22 23  2  0  0  0  0
 23 43  1  0  0  0  0
 24 44  1  0  0  0  0
 24 45  1  0  0  0  0
 24 46  1  0  0  0  0
 25 47  1  0  0  0  0
 25 48  1  0  0  0  0
 25 49  1  0  0  0  0
M  END
> <PUBCHEM_COMPOUND_CID>
11943210

> <PUBCHEM_CONFORMER_RMSD>
0.8

> <PUBCHEM_CONFORMER_DIVERSEORDER>
1
101
102
98
75
115
91
32
43
104
68
96
2
92
48
9
80
108
13
114
44
18
87
84
116
58
53
17
111
35
105
67
86
55
51
3
8
110
89
85
73
23
30
34
62
97
69
78
82
93
42
47
99
7
27
54
60
90
49
4
109
24
79
70
37
5
95
22
38
39
52
56
77
41
19
113
74
72
50
106
6
28
40
88
64
100
112
11
107
20
36
59
76
57
81
94
103
66
45
26
65
10
25
83
71
63
31
61
33
29
12
21
15
14
46
16

> <PUBCHEM_MMFF94_PARTIAL_CHARGES>
27
1 -0.43
10 0.2
12 0.27
13 0.27
14 0.28
15 -0.2
16 -0.18
17 0.78
18 0.12
19 -0.15
2 -0.57
20 -0.15
21 0.08
22 0.08
23 -0.15
24 0.28
25 0.28
3 -0.36
39 0.18
4 -0.36
40 0.37
41 0.15
42 0.15
43 0.15
5 -0.81
6 -0.55
8 0.27

> <PUBCHEM_EFFECTIVE_ROTOR_COUNT>
8.2

> <PUBCHEM_PHARMACOPHORE_FEATURES>
8
1 16 hydrophobe
1 2 acceptor
1 3 acceptor
1 4 acceptor
1 5 cation
1 6 donor
6 18 19 20 21 22 23 rings
8 5 7 8 9 10 11 12 13 rings

> <PUBCHEM_HEAVY_ATOM_COUNT>
25

> <PUBCHEM_ATOM_DEF_STEREO_COUNT>
3

> <PUBCHEM_ATOM_UDEF_STEREO_COUNT>
0

> <PUBCHEM_BOND_DEF_STEREO_COUNT>
0

> <PUBCHEM_BOND_UDEF_STEREO_COUNT>
0

> <PUBCHEM_ISOTOPIC_ATOM_COUNT>
0

> <PUBCHEM_COMPONENT_COUNT>
1

> <PUBCHEM_CACTVS_TAUTO_COUNT>
2

> <PUBCHEM_CONFORMER_ID>
00B63D2A00000001

> <PUBCHEM_MMFF94_ENERGY>
85.6135

> <PUBCHEM_FEATURE_SELFOVERLAP>
40.596

> <PUBCHEM_SHAPE_FINGERPRINT>
10638233 991 17917149515241447416
10835480 77 18113605803211367045
10912923 1 18273213105631939703
11315181 36 18272928328479525559
12107183 9 17340985390696485483
12236239 1 18343864428592857549
12596602 18 18411421730566167555
12616971 3 18272077310716676518
13073987 5 18335702762602101317
13533116 47 18334292064030889842
13782708 43 17604142632706158706
14341114 176 18186521007849961180
146900 427 18412263978079937280
14856354 85 17274821415390748399
15183329 4 18342458136325977462
15238133 3 17346597461516629442
15348495 7 18114183063926817570
15475509 35 16154530014888901832
15716309 27 18410008849645550711
1577012 14 18202006533636439648
15788980 27 16877661266644319503
15880784 105 18261111880946865475
17093844 174 18040709230651727749
17844677 252 18187083927438106644
18927931 339 15647057062696896859
19377110 9 18272370875762639376
19489759 90 16702017570063124199
21130935 74 18335138708652635794
21267235 1 18335980871216131814
21623969 137 17676774240121422608
2303208 19 17313107436371628138
23081809 10 18202281415969875572
23522609 53 18199209393457357968
23559900 14 17749103426221147380
239999 70 18186515493650341322
3004659 81 17603860088303456342
3383291 50 16226334811325357227
3663271 9 18341615940167400099
397830 11 16154282748367048908
4073 2 17749390429380119106
484985 159 13479429292683352545
5104073 3 18411141354636880539
542803 24 17775568658327447109
58083652 198 18408034113323534840

> <PUBCHEM_SHAPE_MULTIPOLES>
481.05
20.67
2.17
1.66
12.49
0.52
0.94
-1.09
4.02
2.58
0.54
-2.99
0.65
-3.75

> <PUBCHEM_SHAPE_SELFOVERLAP>
1014.251

> <PUBCHEM_SHAPE_VOLUME>
266.4

> <PUBCHEM_COORDINATE_TYPE>
2
5
10

$$$$
