40587795
  -OEChem-12032416153D

 49 52  0     1  0  0  0  0  0999 V2000
   -0.6060    1.6468    1.8863 O   0  0  0  0  0  0  0  0  0  0  0  0
   -3.9258   -2.5520    1.9804 O   0  0  0  0  0  0  0  0  0  0  0  0
    2.4935   -0.5579   -1.0876 O   0  0  0  0  0  0  0  0  0  0  0  0
   -4.3664   -1.1935    0.1475 N   0  0  0  0  0  0  0  0  0  0  0  0
   -2.1714    1.1295    0.2303 N   0  0  0  0  0  0  0  0  0  0  0  0
    1.5312    1.0659    0.2595 N   0  0  0  0  0  0  0  0  0  0  0  0
    3.7793    0.6503    0.4603 N   0  0  0  0  0  0  0  0  0  0  0  0
   -4.6975    1.2347    0.6312 C   0  0  1  0  0  0  0  0  0  0  0  0
   -3.8379    0.5342   -1.5635 C   0  0  2  0  0  0  0  0  0  0  0  0
   -4.7827    1.5099   -0.8652 C   0  0  0  0  0  0  0  0  0  0  0  0
   -5.1148   -0.2140    0.9378 C   0  0  0  0  0  0  0  0  0  0  0  0
   -3.2734    1.5382    1.1114 C   0  0  0  0  0  0  0  0  0  0  0  0
   -4.2971   -0.9122   -1.2941 C   0  0  0  0  0  0  0  0  0  0  0  0
   -2.4099    0.7187   -1.0850 C   0  0  0  0  0  0  0  0  0  0  0  0
   -1.3808    0.4614   -1.9098 C   0  0  0  0  0  0  0  0  0  0  0  0
   -0.8656    1.2724    0.7418 C   0  0  0  0  0  0  0  0  0  0  0  0
   -3.8573   -2.3346    0.7679 C   0  0  0  0  0  0  0  0  0  0  0  0
    0.2524    0.9525   -0.2013 C   0  0  0  0  0  0  0  0  0  0  0  0
   -0.0241    0.5805   -1.4556 C   0  0  0  0  0  0  0  0  0  0  0  0
   -3.1798   -3.3435   -0.1244 C   0  0  0  0  0  0  0  0  0  0  0  0
    2.6037    0.2964   -0.2108 C   0  0  0  0  0  0  0  0  0  0  0  0
    5.0761    0.1144    0.2826 C   0  0  0  0  0  0  0  0  0  0  0  0
    6.1396    0.5936    1.0473 C   0  0  0  0  0  0  0  0  0  0  0  0
    5.2916   -0.8932   -0.6576 C   0  0  0  0  0  0  0  0  0  0  0  0
    7.4187    0.0653    0.8720 C   0  0  0  0  0  0  0  0  0  0  0  0
    6.5705   -1.4215   -0.8331 C   0  0  0  0  0  0  0  0  0  0  0  0
    7.6341   -0.9422   -0.0683 C   0  0  0  0  0  0  0  0  0  0  0  0
   -5.3886    1.8978    1.1665 H   0  0  0  0  0  0  0  0  0  0  0  0
   -3.8929    0.7192   -2.6443 H   0  0  0  0  0  0  0  0  0  0  0  0
   -4.5029    2.5479   -1.0843 H   0  0  0  0  0  0  0  0  0  0  0  0
   -5.8104    1.3715   -1.2226 H   0  0  0  0  0  0  0  0  0  0  0  0
   -5.0103   -0.4187    2.0086 H   0  0  0  0  0  0  0  0  0  0  0  0
   -6.1739   -0.3548    0.6884 H   0  0  0  0  0  0  0  0  0  0  0  0
   -3.1679    2.6253    1.2304 H   0  0  0  0  0  0  0  0  0  0  0  0
   -3.1033    1.1089    2.1067 H   0  0  0  0  0  0  0  0  0  0  0  0
   -5.3064   -1.0678   -1.6950 H   0  0  0  0  0  0  0  0  0  0  0  0
   -3.6396   -1.6152   -1.8109 H   0  0  0  0  0  0  0  0  0  0  0  0
   -1.5404    0.1345   -2.9320 H   0  0  0  0  0  0  0  0  0  0  0  0
    0.7279    0.3903   -2.2119 H   0  0  0  0  0  0  0  0  0  0  0  0
   -2.2793   -2.9090   -0.5665 H   0  0  0  0  0  0  0  0  0  0  0  0
   -3.8658   -3.6836   -0.9048 H   0  0  0  0  0  0  0  0  0  0  0  0
   -2.8839   -4.2137    0.4696 H   0  0  0  0  0  0  0  0  0  0  0  0
    1.6606    1.5500    1.1438 H   0  0  0  0  0  0  0  0  0  0  0  0
    3.7011    1.3835    1.1608 H   0  0  0  0  0  0  0  0  0  0  0  0
    5.9854    1.3784    1.7834 H   0  0  0  0  0  0  0  0  0  0  0  0
    4.5206   -1.3155   -1.2864 H   0  0  0  0  0  0  0  0  0  0  0  0
    8.2468    0.4384    1.4675 H   0  0  0  0  0  0  0  0  0  0  0  0
    6.7398   -2.2061   -1.5650 H   0  0  0  0  0  0  0  0  0  0  0  0
    8.6300   -1.3536   -0.2049 H   0  0  0  0  0  0  0  0  0  0  0  0
  1 16  2  0  0  0  0
  2 17  2  0  0  0  0
  3 21  2  0  0  0  0
  4 11  1  0  0  0  0
  4 13  1  0  0  0  0
  4 17  1  0  0  0  0
  5 12  1  0  0  0  0
  5 14  1  0  0  0  0
  5 16  1  0  0  0  0
  6 18  1  0  0  0  0
  6 21  1  0  0  0  0
  6 43  1  0  0  0  0
  7 21  1  0  0  0  0
  7 22  1  0  0  0  0
  7 44  1  0  0  0  0
  8 10  1  0  0  0  0
  8 11  1  0  0  0  0
  8 12  1  0  0  0  0
  8 28  1  0  0  0  0
  9 10  1  0  0  0  0
  9 13  1  0  0  0  0
  9 14  1  0  0  0  0
  9 29  1  0  0  0  0
 10 30  1  0  0  0  0
 10 31  1  0  0  0  0
 11 32  1  0  0  0  0
 11 33  1  0  0  0  0
 12 34  1  0  0  0  0
 12 35  1  0  0  0  0
 13 36  1  0  0  0  0
 13 37  1  0  0  0  0
 14 15  2  0  0  0  0
 15 19  1  0  0  0  0
 15 38  1  0  0  0  0
 16 18  1  0  0  0  0
 17 20  1  0  0  0  0
 18 19  2  0  0  0  0
 19 39  1  0  0  0  0
 20 40  1  0  0  0  0
 20 41  1  0  0  0  0
 20 42  1  0  0  0  0
 22 23  2  0  0  0  0
 22 24  1  0  0  0  0
 23 25  1  0  0  0  0
 23 45  1  0  0  0  0
 24 26  2  0  0  0  0
 24 46  1  0  0  0  0
 25 27  2  0  0  0  0
 25 47  1  0  0  0  0
 26 27  1  0  0  0  0
 26 48  1  0  0  0  0
 27 49  1  0  0  0  0
M  END
> <PUBCHEM_COMPOUND_CID>
40587795

> <PUBCHEM_CONFORMER_RMSD>
0.8

> <PUBCHEM_CONFORMER_DIVERSEORDER>
1
6
14
9
8
11
5
3
13
15
10
2
16
12
7
4

> <PUBCHEM_MMFF94_PARTIAL_CHARGES>
34
1 -0.57
11 0.3
12 0.3
13 0.3
14 -0.03
15 -0.15
16 0.62
17 0.57
18 0.12
19 -0.15
2 -0.57
20 0.06
21 0.69
22 0.12
23 -0.15
24 -0.15
25 -0.15
26 -0.15
27 -0.15
3 -0.57
38 0.15
39 0.15
4 -0.66
43 0.37
44 0.37
45 0.15
46 0.15
47 0.15
48 0.15
49 0.15
5 -0.47
6 -0.54
7 -0.55
9 0.14

> <PUBCHEM_EFFECTIVE_ROTOR_COUNT>
6

> <PUBCHEM_PHARMACOPHORE_FEATURES>
9
1 1 acceptor
1 2 acceptor
1 3 acceptor
1 6 donor
1 7 donor
6 22 23 24 25 26 27 rings
6 4 8 9 10 11 13 rings
6 5 14 15 16 18 19 rings
6 5 8 9 10 12 14 rings

> <PUBCHEM_HEAVY_ATOM_COUNT>
27

> <PUBCHEM_ATOM_DEF_STEREO_COUNT>
2

> <PUBCHEM_ATOM_UDEF_STEREO_COUNT>
0

> <PUBCHEM_BOND_DEF_STEREO_COUNT>
0

> <PUBCHEM_BOND_UDEF_STEREO_COUNT>
0

> <PUBCHEM_ISOTOPIC_ATOM_COUNT>
0

> <PUBCHEM_COMPONENT_COUNT>
1

> <PUBCHEM_CACTVS_TAUTO_COUNT>
9

> <PUBCHEM_CONFORMER_ID>
026B521300000001

> <PUBCHEM_MMFF94_ENERGY>
78.7517

> <PUBCHEM_FEATURE_SELFOVERLAP>
47.286

> <PUBCHEM_SHAPE_FINGERPRINT>
10 15 17489867142378229664
10076449 9 11891343067344892017
10087517 78 11815900045938145954
11315181 36 17918268757985780869
11524674 6 18272366473321369719
11991303 11 12901842631070626104
12236239 1 17774997973723910180
12616971 3 17313114054868648604
12633257 1 17486238861581406523
13288520 33 18040716974456806245
13782708 43 17894910746234935368
13911987 19 13334729150734283409
14251751 18 18334297612580231054
14461889 52 18272641382189377058
14856354 85 18260270745803355695
15183329 4 12685089281274080508
15348495 7 18271803570875780352
15352257 5 18335139757405416514
15510800 12 18262807383828392211
15537594 2 17530680987630130194
15799311 1 18262818293197668438
17093844 174 18201430363889751729
17780758 139 18411702097399039449
17844677 252 17704352182527915024
18927931 339 18060706082595607085
21623969 137 17989773298075819062
220451 1 17676204637659240192
23402539 116 15574711378710027212
23466295 7 17678188302802338955
23522609 53 16662075538157479876
23559900 14 18340760520332441736
249057 3 18113614578267389469
25122255 55 18411708690290299086
2838139 119 8646507197181091582
3383291 50 18339083787229567011
34797466 226 17023198085401823222
397830 11 18338791347052948728
4073 2 18341896286295750842
484985 159 18410011070402462803
5104073 3 16199856371730417146
531348 171 17096355164137251369
58260988 114 16806186453056659633
6009941 240 18340768152605214953
999808 66 18272938215563098654

> <PUBCHEM_SHAPE_MULTIPOLES>
518.12
18.45
2.25
1.59
37.33
2.07
0.06
5.23
-2.29
-3.51
-0.7
-1.34
-0.04
1.47

> <PUBCHEM_SHAPE_SELFOVERLAP>
1124.043

> <PUBCHEM_SHAPE_VOLUME>
274.9

> <PUBCHEM_COORDINATE_TYPE>
2
5
10

$$$$
