38029736
  -OEChem-12032416243D

 58 59  0     1  0  0  0  0  0999 V2000
    2.2198    1.2809   -0.7056 S   0  0  0  0  0  0  0  0  0  0  0  0
   -3.7416    1.4489   -1.0336 O   0  0  0  0  0  0  0  0  0  0  0  0
   -5.2969   -0.2525   -0.9356 O   0  0  0  0  0  0  0  0  0  0  0  0
    1.9203    2.2454    0.3356 O   0  0  0  0  0  0  0  0  0  0  0  0
    2.1460    1.6679   -2.1014 O   0  0  0  0  0  0  0  0  0  0  0  0
    1.2777   -0.1179   -0.4636 N   0  0  0  0  0  0  0  0  0  0  0  0
   -1.1776   -0.4316    1.2254 C   0  0  1  0  0  0  0  0  0  0  0  0
   -0.0525   -1.4850    1.0696 C   0  0  1  0  0  0  0  0  0  0  0  0
   -2.5547   -1.0859    1.0361 C   0  0  0  0  0  0  0  0  0  0  0  0
   -2.6980   -1.7526   -0.3451 C   0  0  2  0  0  0  0  0  0  0  0  0
   -1.1181    0.2670    2.5874 C   0  0  0  0  0  0  0  0  0  0  0  0
   -1.4918   -2.6032   -0.6877 C   0  0  0  0  0  0  0  0  0  0  0  0
   -0.3221   -2.4789   -0.0357 C   0  0  0  0  0  0  0  0  0  0  0  0
    1.3050   -0.8134    0.8325 C   0  0  0  0  0  0  0  0  0  0  0  0
   -2.9620   -0.7098   -1.4370 C   0  0  0  0  0  0  0  0  0  0  0  0
   -1.7794   -0.5960    3.6572 C   0  0  0  0  0  0  0  0  0  0  0  0
   -1.7821    1.6382    2.5116 C   0  0  0  0  0  0  0  0  0  0  0  0
   -1.6744   -3.6332   -1.7675 C   0  0  0  0  0  0  0  0  0  0  0  0
   -4.1542    0.1486   -1.1074 C   0  0  0  0  0  0  0  0  0  0  0  0
    3.8537    0.6669   -0.4259 C   0  0  0  0  0  0  0  0  0  0  0  0
   -4.7634    2.4027   -0.7258 C   0  0  0  0  0  0  0  0  0  0  0  0
    4.5976    0.1549   -1.4888 C   0  0  0  0  0  0  0  0  0  0  0  0
    4.3976    0.6913    0.8582 C   0  0  0  0  0  0  0  0  0  0  0  0
   -4.1494    3.7858   -0.6808 C   0  0  0  0  0  0  0  0  0  0  0  0
    5.8856   -0.3331   -1.2678 C   0  0  0  0  0  0  0  0  0  0  0  0
    5.6855    0.2034    1.0795 C   0  0  0  0  0  0  0  0  0  0  0  0
    6.4295   -0.3087    0.0165 C   0  0  0  0  0  0  0  0  0  0  0  0
   -1.0584    0.3300    0.4444 H   0  0  0  0  0  0  0  0  0  0  0  0
    0.0313   -2.0709    1.9935 H   0  0  0  0  0  0  0  0  0  0  0  0
   -3.3675   -0.3765    1.2178 H   0  0  0  0  0  0  0  0  0  0  0  0
   -2.6929   -1.8965    1.7643 H   0  0  0  0  0  0  0  0  0  0  0  0
   -3.5758   -2.4110   -0.2817 H   0  0  0  0  0  0  0  0  0  0  0  0
   -0.0788    0.4374    2.8858 H   0  0  0  0  0  0  0  0  0  0  0  0
    0.4964   -3.1489   -0.2921 H   0  0  0  0  0  0  0  0  0  0  0  0
    2.0980   -1.5702    0.8020 H   0  0  0  0  0  0  0  0  0  0  0  0
    1.5459   -0.1201    1.6414 H   0  0  0  0  0  0  0  0  0  0  0  0
   -3.1741   -1.1869   -2.4013 H   0  0  0  0  0  0  0  0  0  0  0  0
   -2.0787   -0.0802   -1.6011 H   0  0  0  0  0  0  0  0  0  0  0  0
   -1.3941   -1.6197    3.6724 H   0  0  0  0  0  0  0  0  0  0  0  0
   -1.5649   -0.1704    4.6454 H   0  0  0  0  0  0  0  0  0  0  0  0
   -2.8712   -0.6217    3.5760 H   0  0  0  0  0  0  0  0  0  0  0  0
   -1.7095    2.1523    3.4763 H   0  0  0  0  0  0  0  0  0  0  0  0
   -1.2900    2.2706    1.7647 H   0  0  0  0  0  0  0  0  0  0  0  0
   -2.8436    1.5733    2.2530 H   0  0  0  0  0  0  0  0  0  0  0  0
   -2.5076   -4.2989   -1.5205 H   0  0  0  0  0  0  0  0  0  0  0  0
   -0.7831   -4.2562   -1.8983 H   0  0  0  0  0  0  0  0  0  0  0  0
   -1.8839   -3.1535   -2.7282 H   0  0  0  0  0  0  0  0  0  0  0  0
    1.0804   -0.7001   -1.2868 H   0  0  0  0  0  0  0  0  0  0  0  0
   -5.5408    2.3672   -1.4971 H   0  0  0  0  0  0  0  0  0  0  0  0
   -5.2047    2.1621    0.2479 H   0  0  0  0  0  0  0  0  0  0  0  0
    4.1910    0.1189   -2.4954 H   0  0  0  0  0  0  0  0  0  0  0  0
    3.8353    1.0828    1.7010 H   0  0  0  0  0  0  0  0  0  0  0  0
   -3.6871    4.0336   -1.6419 H   0  0  0  0  0  0  0  0  0  0  0  0
   -4.9041    4.5415   -0.4462 H   0  0  0  0  0  0  0  0  0  0  0  0
   -3.3572    3.8305    0.0740 H   0  0  0  0  0  0  0  0  0  0  0  0
    6.4642   -0.7337   -2.0949 H   0  0  0  0  0  0  0  0  0  0  0  0
    6.1089    0.2213    2.0795 H   0  0  0  0  0  0  0  0  0  0  0  0
    7.4320   -0.6891    0.1889 H   0  0  0  0  0  0  0  0  0  0  0  0
  1  4  2  0  0  0  0
  1  5  2  0  0  0  0
  1  6  1  0  0  0  0
  1 20  1  0  0  0  0
  2 19  1  0  0  0  0
  2 21  1  0  0  0  0
  3 19  2  0  0  0  0
  6 14  1  0  0  0  0
  6 48  1  0  0  0  0
  7  8  1  0  0  0  0
  7  9  1  0  0  0  0
  7 11  1  0  0  0  0
  7 28  1  0  0  0  0
  8 13  1  0  0  0  0
  8 14  1  0  0  0  0
  8 29  1  0  0  0  0
  9 10  1  0  0  0  0
  9 30  1  0  0  0  0
  9 31  1  0  0  0  0
 10 12  1  0  0  0  0
 10 15  1  0  0  0  0
 10 32  1  0  0  0  0
 11 16  1  0  0  0  0
 11 17  1  0  0  0  0
 11 33  1  0  0  0  0
 12 13  2  0  0  0  0
 12 18  1  0  0  0  0
 13 34  1  0  0  0  0
 14 35  1  0  0  0  0
 14 36  1  0  0  0  0
 15 19  1  0  0  0  0
 15 37  1  0  0  0  0
 15 38  1  0  0  0  0
 16 39  1  0  0  0  0
 16 40  1  0  0  0  0
 16 41  1  0  0  0  0
 17 42  1  0  0  0  0
 17 43  1  0  0  0  0
 17 44  1  0  0  0  0
 18 45  1  0  0  0  0
 18 46  1  0  0  0  0
 18 47  1  0  0  0  0
 20 22  2  0  0  0  0
 20 23  1  0  0  0  0
 21 24  1  0  0  0  0
 21 49  1  0  0  0  0
 21 50  1  0  0  0  0
 22 25  1  0  0  0  0
 22 51  1  0  0  0  0
 23 26  2  0  0  0  0
 23 52  1  0  0  0  0
 24 53  1  0  0  0  0
 24 54  1  0  0  0  0
 24 55  1  0  0  0  0
 25 27  2  0  0  0  0
 25 56  1  0  0  0  0
 26 27  1  0  0  0  0
 26 57  1  0  0  0  0
 27 58  1  0  0  0  0
M  END
> <PUBCHEM_COMPOUND_CID>
38029736

> <PUBCHEM_CONFORMER_RMSD>
1

> <PUBCHEM_CONFORMER_DIVERSEORDER>
1
69
82
97
60
114
28
120
61
119
93
113
148
135
151
140
137
46
54
94
37
127
12
101
57
81
136
134
147
115
58
144
47
91
109
5
122
48
139
149
130
30
16
116
117
27
96
6
45
8
39
124
141
132
78
23
41
38
35
90
62
145
121
143
7
15
9
14
67
70
76
68
110
142
11
86
49
100
138
52
13
71
123
55
133
112
129
83
102
53
56
51
29
80
98
36
26
10
66
128
65
84
104
150
73
31
74
21
108
85
18
59
92
89
40
152
125
4
34
77
20
106
103
107
50
131
17
105
32
79
64
146
2
25
111
3
42
75
44
118
87
72
63
95
126
99
33
43
22
88
19
24

> <PUBCHEM_MMFF94_PARTIAL_CHARGES>
28
1 1.45
10 0.14
12 -0.28
13 -0.29
14 0.36
15 0.06
18 0.14
19 0.66
2 -0.43
20 -0.01
21 0.28
22 -0.15
23 -0.15
25 -0.15
26 -0.15
27 -0.15
3 -0.57
34 0.15
4 -0.65
48 0.42
5 -0.65
51 0.15
52 0.15
56 0.15
57 0.15
58 0.15
6 -0.91
8 0.14

> <PUBCHEM_EFFECTIVE_ROTOR_COUNT>
9.8

> <PUBCHEM_PHARMACOPHORE_FEATURES>
7
1 3 acceptor
1 4 acceptor
1 5 acceptor
1 6 donor
3 11 16 17 hydrophobe
6 20 22 23 25 26 27 rings
6 7 8 9 10 12 13 rings

> <PUBCHEM_HEAVY_ATOM_COUNT>
27

> <PUBCHEM_ATOM_DEF_STEREO_COUNT>
3

> <PUBCHEM_ATOM_UDEF_STEREO_COUNT>
0

> <PUBCHEM_BOND_DEF_STEREO_COUNT>
0

> <PUBCHEM_BOND_UDEF_STEREO_COUNT>
0

> <PUBCHEM_ISOTOPIC_ATOM_COUNT>
0

> <PUBCHEM_COMPONENT_COUNT>
1

> <PUBCHEM_CACTVS_TAUTO_COUNT>
1

> <PUBCHEM_CONFORMER_ID>
024449A800000001

> <PUBCHEM_MMFF94_ENERGY>
40.7717

> <PUBCHEM_FEATURE_SELFOVERLAP>
35.539

> <PUBCHEM_SHAPE_FINGERPRINT>
10165383 225 18202281391107465375
1200032 147 18047189657903034385
12107698 1 17895480335965098927
121448 382 17560810904723838827
12293681 160 17632570505757703787
13149001 5 17273396491329241507
13177829 73 18334852792805932396
14713325 29 18333736844902816875
14955137 171 11530484398410967814
15163728 17 18265899060248497575
15183329 4 18408037407916443742
15295992 7 17241331398814452372
17349148 13 17703240602041491418
192875 21 17845942938997809792
21304303 282 17345484682260129297
23402539 116 16988571207618937234
23557571 272 16126999415675141890
23559900 14 17632010974872504602
2838139 119 18186512194635254557
392239 28 16733279984444854225
404807 14 17048240329470247174
44062 13 18268427004784532342
5104073 3 15213582381795843616
5283173 99 18272078440045226440

> <PUBCHEM_SHAPE_MULTIPOLES>
531.04
12.31
3.22
2.54
15.19
0.09
-2.23
-4.91
4.72
-4.89
1.56
-1.56
-0.26
0.24

> <PUBCHEM_SHAPE_SELFOVERLAP>
1071.782

> <PUBCHEM_SHAPE_VOLUME>
312

> <PUBCHEM_COORDINATE_TYPE>
2
5
10

$$$$
