51137369
  -OEChem-12032416223D

 52 57  0     1  0  0  0  0  0999 V2000
    2.7093   -0.3494   -0.0270 O   0  0  0  0  0  0  0  0  0  0  0  0
   -3.7211    0.9260    0.3675 O   0  0  0  0  0  0  0  0  0  0  0  0
   -4.5392    0.1475   -1.7613 O   0  0  0  0  0  0  0  0  0  0  0  0
    0.3017   -2.7225    1.0471 N   0  0  2  0  0  0  0  0  0  0  0  0
    4.0044   -1.3826   -1.5303 N   0  0  0  0  0  0  0  0  0  0  0  0
    4.3094   -0.0345   -1.5585 N   0  0  0  0  0  0  0  0  0  0  0  0
    0.2627    3.5718   -1.2724 N   0  0  0  0  0  0  0  0  0  0  0  0
    2.3480   -2.7682   -0.1601 C   0  0  1  0  0  0  0  0  0  0  0  0
    2.5740   -3.0654    1.3297 C   0  0  0  0  0  0  0  0  0  0  0  0
    0.8179   -2.7293   -0.3253 C   0  0  0  0  0  0  0  0  0  0  0  0
    1.2216   -3.5543    1.8203 C   0  0  0  0  0  0  0  0  0  0  0  0
   -1.0748   -3.1864    1.1290 C   0  0  0  0  0  0  0  0  0  0  0  0
    3.0663   -1.5200   -0.6227 C   0  0  0  0  0  0  0  0  0  0  0  0
   -2.0076   -2.3183    0.3272 C   0  0  0  0  0  0  0  0  0  0  0  0
    3.5297    0.5292   -0.6657 C   0  0  0  0  0  0  0  0  0  0  0  0
   -2.3889   -1.0687    0.8217 C   0  0  0  0  0  0  0  0  0  0  0  0
   -2.4852   -2.7725   -0.9149 C   0  0  0  0  0  0  0  0  0  0  0  0
    3.4269    1.9396   -0.2708 C   0  0  0  0  0  0  0  0  0  0  0  0
   -3.2436   -0.3083    0.0501 C   0  0  0  0  0  0  0  0  0  0  0  0
    2.0342    2.5433   -0.4172 C   0  0  0  0  0  0  0  0  0  0  0  0
   -3.3494   -1.9824   -1.6765 C   0  0  0  0  0  0  0  0  0  0  0  0
   -3.7108   -0.7528   -1.1654 C   0  0  0  0  0  0  0  0  0  0  0  0
    1.0103    2.5614    0.5708 C   0  0  0  0  0  0  0  0  0  0  0  0
   -0.0901    3.2123    0.0089 C   0  0  0  0  0  0  0  0  0  0  0  0
    1.5446    3.1717   -1.5391 C   0  0  0  0  0  0  0  0  0  0  0  0
   -4.5410    1.2086   -0.7849 C   0  0  0  0  0  0  0  0  0  0  0  0
    0.9138    2.0852    1.8934 C   0  0  0  0  0  0  0  0  0  0  0  0
   -1.2869    3.4114    0.7062 C   0  0  0  0  0  0  0  0  0  0  0  0
   -0.2771    2.2772    2.6031 C   0  0  0  0  0  0  0  0  0  0  0  0
   -1.3593    2.9304    2.0167 C   0  0  0  0  0  0  0  0  0  0  0  0
    2.7381   -3.6086   -0.7498 H   0  0  0  0  0  0  0  0  0  0  0  0
    3.3551   -3.8186    1.4778 H   0  0  0  0  0  0  0  0  0  0  0  0
    2.8725   -2.1667    1.8841 H   0  0  0  0  0  0  0  0  0  0  0  0
    0.4850   -1.8533   -0.8926 H   0  0  0  0  0  0  0  0  0  0  0  0
    0.5049   -3.6326   -0.8661 H   0  0  0  0  0  0  0  0  0  0  0  0
    1.1078   -3.4057    2.8986 H   0  0  0  0  0  0  0  0  0  0  0  0
    1.0995   -4.6212    1.5939 H   0  0  0  0  0  0  0  0  0  0  0  0
   -1.4099   -3.1709    2.1747 H   0  0  0  0  0  0  0  0  0  0  0  0
   -1.1652   -4.2320    0.8040 H   0  0  0  0  0  0  0  0  0  0  0  0
   -2.0288   -0.7037    1.7777 H   0  0  0  0  0  0  0  0  0  0  0  0
   -2.1861   -3.7452   -1.2976 H   0  0  0  0  0  0  0  0  0  0  0  0
    3.7549    2.0486    0.7703 H   0  0  0  0  0  0  0  0  0  0  0  0
    4.1259    2.5362   -0.8708 H   0  0  0  0  0  0  0  0  0  0  0  0
   -3.7197   -2.3289   -2.6346 H   0  0  0  0  0  0  0  0  0  0  0  0
    1.9918    3.3703   -2.5031 H   0  0  0  0  0  0  0  0  0  0  0  0
   -0.3385    4.0600   -1.9217 H   0  0  0  0  0  0  0  0  0  0  0  0
   -4.1720    2.1244   -1.2611 H   0  0  0  0  0  0  0  0  0  0  0  0
   -5.5711    1.3764   -0.4501 H   0  0  0  0  0  0  0  0  0  0  0  0
    1.7469    1.5719    2.3651 H   0  0  0  0  0  0  0  0  0  0  0  0
   -2.1307    3.9180    0.2500 H   0  0  0  0  0  0  0  0  0  0  0  0
   -0.3579    1.9102    3.6228 H   0  0  0  0  0  0  0  0  0  0  0  0
   -2.2756    3.0668    2.5853 H   0  0  0  0  0  0  0  0  0  0  0  0
  1 13  1  0  0  0  0
  1 15  1  0  0  0  0
  2 19  1  0  0  0  0
  2 26  1  0  0  0  0
  3 22  1  0  0  0  0
  3 26  1  0  0  0  0
  4 10  1  0  0  0  0
  4 11  1  0  0  0  0
  4 12  1  0  0  0  0
  5  6  1  0  0  0  0
  5 13  2  0  0  0  0
  6 15  2  0  0  0  0
  7 24  1  0  0  0  0
  7 25  1  0  0  0  0
  7 46  1  0  0  0  0
  8  9  1  0  0  0  0
  8 10  1  0  0  0  0
  8 13  1  0  0  0  0
  8 31  1  0  0  0  0
  9 11  1  0  0  0  0
  9 32  1  0  0  0  0
  9 33  1  0  0  0  0
 10 34  1  0  0  0  0
 10 35  1  0  0  0  0
 11 36  1  0  0  0  0
 11 37  1  0  0  0  0
 12 14  1  0  0  0  0
 12 38  1  0  0  0  0
 12 39  1  0  0  0  0
 14 16  2  0  0  0  0
 14 17  1  0  0  0  0
 15 18  1  0  0  0  0
 16 19  1  0  0  0  0
 16 40  1  0  0  0  0
 17 21  2  0  0  0  0
 17 41  1  0  0  0  0
 18 20  1  0  0  0  0
 18 42  1  0  0  0  0
 18 43  1  0  0  0  0
 19 22  2  0  0  0  0
 20 23  1  0  0  0  0
 20 25  2  0  0  0  0
 21 22  1  0  0  0  0
 21 44  1  0  0  0  0
 23 24  1  0  0  0  0
 23 27  2  0  0  0  0
 24 28  2  0  0  0  0
 25 45  1  0  0  0  0
 26 47  1  0  0  0  0
 26 48  1  0  0  0  0
 27 29  1  0  0  0  0
 27 49  1  0  0  0  0
 28 30  1  0  0  0  0
 28 50  1  0  0  0  0
 29 30  2  0  0  0  0
 29 51  1  0  0  0  0
 30 52  1  0  0  0  0
M  END
> <PUBCHEM_COMPOUND_CID>
51137369

> <PUBCHEM_CONFORMER_RMSD>
1.4

> <PUBCHEM_CONFORMER_DIVERSEORDER>
1
25
67
79
32
86
84
71
92
14
52
29
76
19
58
5
83
8
82
7
66
72
60
63
11
93
6
62
23
13
44
89
21
36
56
54
42
34
87
50
48
40
33
88
78
55
39
51
69
16
4
45
61
70
53
20
30
85
18
22
74
17
3
77
26
49
24
27
68
38
90
64
81
28
57
59
31
75
9
41
80
73
10
47
43
12
91
46
15
2
35
65
37

> <PUBCHEM_MMFF94_PARTIAL_CHARGES>
37
1 -0.28
10 0.27
11 0.27
12 0.41
13 0.3
14 -0.14
15 0.3
16 -0.15
17 -0.15
18 0.36
19 0.08
2 -0.36
20 -0.18
21 -0.15
22 0.08
24 -0.15
25 -0.3
26 0.56
27 -0.15
28 -0.15
29 -0.15
3 -0.36
30 -0.15
4 -0.81
40 0.15
41 0.15
44 0.15
45 0.15
46 0.27
49 0.15
5 -0.34
50 0.15
51 0.15
52 0.15
6 -0.34
7 0.03
8 0.18

> <PUBCHEM_EFFECTIVE_ROTOR_COUNT>
6.6

> <PUBCHEM_PHARMACOPHORE_FEATURES>
11
1 2 acceptor
1 3 acceptor
1 4 cation
1 7 cation
1 7 donor
5 1 5 6 13 15 rings
5 2 3 19 22 26 rings
5 4 8 9 10 11 rings
5 7 20 23 24 25 rings
6 14 16 17 19 21 22 rings
6 23 24 27 28 29 30 rings

> <PUBCHEM_HEAVY_ATOM_COUNT>
30

> <PUBCHEM_ATOM_DEF_STEREO_COUNT>
1

> <PUBCHEM_ATOM_UDEF_STEREO_COUNT>
0

> <PUBCHEM_BOND_DEF_STEREO_COUNT>
0

> <PUBCHEM_BOND_UDEF_STEREO_COUNT>
0

> <PUBCHEM_ISOTOPIC_ATOM_COUNT>
0

> <PUBCHEM_COMPONENT_COUNT>
1

> <PUBCHEM_CACTVS_TAUTO_COUNT>
1

> <PUBCHEM_CONFORMER_ID>
030C4B5900000001

> <PUBCHEM_MMFF94_ENERGY>
54.4116

> <PUBCHEM_FEATURE_SELFOVERLAP>
56.071

> <PUBCHEM_SHAPE_FINGERPRINT>
10675989 125 18409442587977503533
10871710 139 18051143492577124411
11513181 2 17628925521384504623
12100795 323 16107544991355166169
12156800 1 15800402456923320720
12539773 59 17917442981866588081
12788726 201 18056763135082369489
13122387 1 18050292461718291781
13402501 40 17329999503960325778
13512321 179 12475904750153333247
13642711 20 16447024171772624425
14114207 22 16679986727958864243
14114211 80 16320942558802242170
14117953 113 16753813062712760773
14725015 67 17616799376777179402
14931854 50 18410577249416300263
15210252 30 18260548926730235964
15274700 242 17969807236472806144
15297060 5 17054989191943762867
15322687 12 18333725828037155669
17093844 170 18410283740321533784
17921350 177 16954742619282654932
20764821 26 18263932218170881839
21315764 21 17605538960643235143
23536364 44 17474432365525031276
238 59 17550944127841779694
35225 105 17404307295767772709
354706 35 17401185164003084005
437795 70 17696498203472450478
44344687 77 17765137760043101839
463206 1 18342183279714931113
469060 322 17759243990584375185
508706 21 18046342204213401974
54672768 99 17902506322303413500
66674814 147 18262797483796204504

> <PUBCHEM_SHAPE_MULTIPOLES>
579.85
7.32
6.07
2
2.95
0.31
-0.62
-1.31
4.56
-1.69
-1.81
0.05
0.51
-0.85

> <PUBCHEM_SHAPE_SELFOVERLAP>
1298.106

> <PUBCHEM_SHAPE_VOLUME>
310.7

> <PUBCHEM_COORDINATE_TYPE>
2
5
10

$$$$
