7134270
  -OEChem-12032416233D

 61 64  0     1  0  0  0  0  0999 V2000
   -5.5350    4.9177   -0.2969 S   0  0  0  0  0  0  0  0  0  0  0  0
   -2.7937   -5.1328    0.5220 S   0  0  0  0  0  0  0  0  0  0  0  0
    6.8352    0.6086    0.6710 S   0  0  0  0  0  0  0  0  0  0  0  0
    0.5523    2.0567   -1.0162 O   0  0  0  0  0  0  0  0  0  0  0  0
   -1.3772    3.8080    1.1402 O   0  0  0  0  0  0  0  0  0  0  0  0
    0.4519   -3.3094   -0.5057 O   0  0  0  0  0  0  0  0  0  0  0  0
    2.7389   -1.2642   -0.8126 O   0  0  0  0  0  0  0  0  0  0  0  0
   -1.7670    1.7681    0.1028 N   0  0  0  0  0  0  0  0  0  0  0  0
   -1.6703   -2.4936   -0.0491 N   0  0  0  0  0  0  0  0  0  0  0  0
    1.7115    0.8542    0.6054 N   0  0  0  0  0  0  0  0  0  0  0  0
   -4.5274    2.5781    0.1435 N   0  0  0  0  0  0  0  0  0  0  0  0
    3.9278    0.2424   -2.0748 N   0  0  0  0  0  0  0  0  0  0  0  0
   -1.2952   -7.1353    0.3751 N   0  0  0  0  0  0  0  0  0  0  0  0
   -2.5424   -6.7843    0.6449 N   0  0  0  0  0  0  0  0  0  0  0  0
   -1.3751   -1.1032   -0.3029 C   0  0  2  0  0  0  0  0  0  0  0  0
   -0.6654    1.0895    0.7970 C   0  0  1  0  0  0  0  0  0  0  0  0
   -0.8769   -0.4138    0.9696 C   0  0  0  0  0  0  0  0  0  0  0  0
   -2.6061   -0.3772   -0.8396 C   0  0  0  0  0  0  0  0  0  0  0  0
   -2.3136    1.0978   -1.0900 C   0  0  0  0  0  0  0  0  0  0  0  0
    0.5816    1.4022    0.0226 C   0  0  0  0  0  0  0  0  0  0  0  0
   -2.1467    3.0605    0.5335 C   0  0  0  0  0  0  0  0  0  0  0  0
    3.0359    0.9908    0.0435 C   0  0  1  0  0  0  0  0  0  0  0  0
   -0.7164   -3.4928   -0.1743 C   0  0  0  0  0  0  0  0  0  0  0  0
   -3.5052    3.4999    0.2333 C   0  0  0  0  0  0  0  0  0  0  0  0
    4.1314    0.9348    1.1153 C   0  0  0  0  0  0  0  0  0  0  0  0
   -1.1854   -4.8762    0.0964 C   0  0  0  0  0  0  0  0  0  0  0  0
    3.2151   -0.1409   -0.9580 C   0  0  0  0  0  0  0  0  0  0  0  0
   -3.8537    4.8158    0.0261 C   0  0  0  0  0  0  0  0  0  0  0  0
    5.4262    1.5547    0.6455 C   0  0  0  0  0  0  0  0  0  0  0  0
   -0.5147   -6.0347    0.0592 C   0  0  0  0  0  0  0  0  0  0  0  0
   -5.6448    3.2131   -0.1327 C   0  0  0  0  0  0  0  0  0  0  0  0
    5.6185    2.8193    0.1883 C   0  0  0  0  0  0  0  0  0  0  0  0
    0.9078   -6.2593   -0.2677 C   0  0  0  0  0  0  0  0  0  0  0  0
   -6.9592    2.5571   -0.3055 C   0  0  0  0  0  0  0  0  0  0  0  0
    6.9828    3.0345   -0.1614 C   0  0  0  0  0  0  0  0  0  0  0  0
    7.7546    1.9136    0.0518 C   0  0  0  0  0  0  0  0  0  0  0  0
   -0.5819   -1.0607   -1.0604 H   0  0  0  0  0  0  0  0  0  0  0  0
   -0.5454    1.5426    1.7898 H   0  0  0  0  0  0  0  0  0  0  0  0
   -1.6367   -0.5550    1.7523 H   0  0  0  0  0  0  0  0  0  0  0  0
    0.0160   -0.9266    1.3431 H   0  0  0  0  0  0  0  0  0  0  0  0
   -2.9440   -0.8477   -1.7709 H   0  0  0  0  0  0  0  0  0  0  0  0
   -3.4349   -0.4665   -0.1250 H   0  0  0  0  0  0  0  0  0  0  0  0
   -1.5619    1.1818   -1.8831 H   0  0  0  0  0  0  0  0  0  0  0  0
   -3.1936    1.6041   -1.4879 H   0  0  0  0  0  0  0  0  0  0  0  0
   -2.6034   -2.7376    0.2705 H   0  0  0  0  0  0  0  0  0  0  0  0
    1.6279    0.3382    1.4755 H   0  0  0  0  0  0  0  0  0  0  0  0
    3.0557    1.9482   -0.4909 H   0  0  0  0  0  0  0  0  0  0  0  0
    3.8050    1.4984    2.0005 H   0  0  0  0  0  0  0  0  0  0  0  0
    4.2794   -0.0993    1.4531 H   0  0  0  0  0  0  0  0  0  0  0  0
   -3.2300    5.6986    0.0450 H   0  0  0  0  0  0  0  0  0  0  0  0
    4.8422    3.5687    0.1039 H   0  0  0  0  0  0  0  0  0  0  0  0
    4.3070    1.1770   -2.1881 H   0  0  0  0  0  0  0  0  0  0  0  0
    4.1066   -0.4138   -2.8277 H   0  0  0  0  0  0  0  0  0  0  0  0
    1.1301   -5.9237   -1.2856 H   0  0  0  0  0  0  0  0  0  0  0  0
    1.5567   -5.7196    0.4293 H   0  0  0  0  0  0  0  0  0  0  0  0
    1.1629   -7.3222   -0.2045 H   0  0  0  0  0  0  0  0  0  0  0  0
   -6.8671    1.4736   -0.1767 H   0  0  0  0  0  0  0  0  0  0  0  0
   -7.3614    2.7402   -1.3071 H   0  0  0  0  0  0  0  0  0  0  0  0
   -7.6801    2.9204    0.4339 H   0  0  0  0  0  0  0  0  0  0  0  0
    7.3783    3.9645   -0.5485 H   0  0  0  0  0  0  0  0  0  0  0  0
    8.8145    1.7988   -0.1264 H   0  0  0  0  0  0  0  0  0  0  0  0
  1 28  1  0  0  0  0
  1 31  1  0  0  0  0
  2 14  1  0  0  0  0
  2 26  1  0  0  0  0
  3 29  1  0  0  0  0
  3 36  1  0  0  0  0
  4 20  2  0  0  0  0
  5 21  2  0  0  0  0
  6 23  2  0  0  0  0
  7 27  2  0  0  0  0
  8 16  1  0  0  0  0
  8 19  1  0  0  0  0
  8 21  1  0  0  0  0
  9 15  1  0  0  0  0
  9 23  1  0  0  0  0
  9 45  1  0  0  0  0
 10 20  1  0  0  0  0
 10 22  1  0  0  0  0
 10 46  1  0  0  0  0
 11 24  1  0  0  0  0
 11 31  2  0  0  0  0
 12 27  1  0  0  0  0
 12 52  1  0  0  0  0
 12 53  1  0  0  0  0
 13 14  2  0  0  0  0
 13 30  1  0  0  0  0
 15 17  1  0  0  0  0
 15 18  1  0  0  0  0
 15 37  1  0  0  0  0
 16 17  1  0  0  0  0
 16 20  1  0  0  0  0
 16 38  1  0  0  0  0
 17 39  1  0  0  0  0
 17 40  1  0  0  0  0
 18 19  1  0  0  0  0
 18 41  1  0  0  0  0
 18 42  1  0  0  0  0
 19 43  1  0  0  0  0
 19 44  1  0  0  0  0
 21 24  1  0  0  0  0
 22 25  1  0  0  0  0
 22 27  1  0  0  0  0
 22 47  1  0  0  0  0
 23 26  1  0  0  0  0
 24 28  2  0  0  0  0
 25 29  1  0  0  0  0
 25 48  1  0  0  0  0
 25 49  1  0  0  0  0
 26 30  2  0  0  0  0
 28 50  1  0  0  0  0
 29 32  2  0  0  0  0
 30 33  1  0  0  0  0
 31 34  1  0  0  0  0
 32 35  1  0  0  0  0
 32 51  1  0  0  0  0
 33 54  1  0  0  0  0
 33 55  1  0  0  0  0
 33 56  1  0  0  0  0
 34 57  1  0  0  0  0
 34 58  1  0  0  0  0
 34 59  1  0  0  0  0
 35 36  2  0  0  0  0
 35 60  1  0  0  0  0
 36 61  1  0  0  0  0
M  END
> <PUBCHEM_COMPOUND_CID>
7134270

> <PUBCHEM_CONFORMER_RMSD>
1.2

> <PUBCHEM_CONFORMER_DIVERSEORDER>
1
73
3
96
102
118
18
14
97
69
52
9
87
75
53
5
64
100
49
12
101
72
104
20
27
50
33
60
11
82
22
65
7
98
83
105
107
29
86
71
115
54
88
43
38
36
41
6
37
40
31
59
68
63
110
109
24
45
116
66
80
13
10
34
74
91
19
84
25
58
28
112
93
56
55
92
16
103
76
85
46
51
89
15
95
81
21
32
30
94
111
108
47
79
62
42
67
99
113
44
78
90
119
35
23
17
8
106
2
48
61
117
57
77
39
4
70
114
26

> <PUBCHEM_MMFF94_PARTIAL_CHARGES>
42
1 -0.08
10 -0.73
11 -0.57
12 -0.8
13 -0.23
14 -0.22
15 0.3
16 0.36
19 0.3
2 0.18
20 0.57
21 0.72
22 0.36
23 0.71
24 0.14
25 0.18
26 -0.05
27 0.57
28 -0.11
29 -0.14
3 -0.08
30 0.05
31 0.2
32 -0.15
33 0.18
34 0.18
35 -0.15
36 -0.11
4 -0.57
45 0.37
46 0.37
5 -0.57
50 0.15
51 0.15
52 0.37
53 0.37
6 -0.57
60 0.15
61 0.15
7 -0.57
8 -0.66
9 -0.73

> <PUBCHEM_EFFECTIVE_ROTOR_COUNT>
12.2

> <PUBCHEM_PHARMACOPHORE_FEATURES>
12
1 10 donor
1 11 acceptor
1 12 donor
1 4 acceptor
1 5 acceptor
1 6 acceptor
1 7 acceptor
1 9 donor
5 1 11 24 28 31 rings
5 2 13 14 26 30 rings
5 3 29 32 35 36 rings
6 8 15 16 17 18 19 rings

> <PUBCHEM_HEAVY_ATOM_COUNT>
36

> <PUBCHEM_ATOM_DEF_STEREO_COUNT>
3

> <PUBCHEM_ATOM_UDEF_STEREO_COUNT>
0

> <PUBCHEM_BOND_DEF_STEREO_COUNT>
0

> <PUBCHEM_BOND_UDEF_STEREO_COUNT>
0

> <PUBCHEM_ISOTOPIC_ATOM_COUNT>
0

> <PUBCHEM_COMPONENT_COUNT>
1

> <PUBCHEM_CACTVS_TAUTO_COUNT>
8

> <PUBCHEM_CONFORMER_ID>
006CDC3E00000001

> <PUBCHEM_MMFF94_ENERGY>
69.3081

> <PUBCHEM_FEATURE_SELFOVERLAP>
60.9

> <PUBCHEM_SHAPE_FINGERPRINT>
10319688 45 18050288364319758114
10411042 1 17689998259885105258
10675989 125 17983018838879549728
11093857 51 17755899361785011804
11136131 41 18191298274652177019
12107183 9 17691983969506580955
12440610 7 18341901788075160740
13248334 5 17762054341867230465
14068700 675 17756983777135432614
15064981 194 18190466150250236420
15347591 1 18266458884479025128
15400415 2 18338795615913460624
15439362 3 17977101254640771617
15927050 60 18270392785888745759
16090146 7 18270697388679387280
16114785 44 18341895216732804257
16992752 21 17833279992925767204
18393751 57 18337959991434667281
19319366 153 18198052587065508701
20505436 4 17968089807652443056
21639891 77 17902782304233691639
21796203 349 17035600850671683498
25019877 29 18261111829386685669
3534868 343 17107351706682752036
3627633 1 18050002500033949219
44280117 145 18192996148766542628
5265222 85 18412541028755601760
563151 97 18339348679183859277
6058803 2 18042399305042440296
6376802 90 18340775914122386908
6695519 79 18125186890862530337
6700243 42 17693979505995976324
6703917 75 18411989044112279713
77188 2 17473542933136172745
9961470 85 18340485578602556526

> <PUBCHEM_SHAPE_MULTIPOLES>
694.07
15
11.66
1.01
18.6
28.29
0.18
-28.1
-0.04
-13.75
-1.45
0.53
-0.15
0.93

> <PUBCHEM_SHAPE_SELFOVERLAP>
1441.662

> <PUBCHEM_SHAPE_VOLUME>
396.8

> <PUBCHEM_COORDINATE_TYPE>
2
5
10

$$$$
