11912977
  -OEChem-12032416293D

 47 51  0     1  0  0  0  0  0999 V2000
    3.9502    0.0300   -1.6863 S   0  0  0  0  0  0  0  0  0  0  0  0
    5.7581    1.9414   -0.4113 S   0  0  0  0  0  0  0  0  0  0  0  0
    0.2900    1.0531    1.1948 O   0  0  0  0  0  0  0  0  0  0  0  0
    1.3403   -1.8670    1.5212 O   0  0  0  0  0  0  0  0  0  0  0  0
    4.1469    0.8450   -2.8700 O   0  0  0  0  0  0  0  0  0  0  0  0
    3.7850   -1.4058   -1.8081 O   0  0  0  0  0  0  0  0  0  0  0  0
   -4.2849    1.8977    0.5260 O   0  0  0  0  0  0  0  0  0  0  0  0
    2.6580    0.6544   -0.7786 N   0  0  0  0  0  0  0  0  0  0  0  0
   -1.6177   -2.0065    0.6215 N   0  0  0  0  0  0  0  0  0  0  0  0
   -3.3449   -0.4822    0.1739 N   0  0  0  0  0  0  0  0  0  0  0  0
   -3.4062   -2.7195   -0.7194 N   0  0  0  0  0  0  0  0  0  0  0  0
    1.2708   -0.9649    0.4045 C   0  0  1  0  0  0  0  0  0  0  0  0
   -0.0229   -0.1849    0.5344 C   0  0  1  0  0  0  0  0  0  0  0  0
    2.3486    0.0895    0.5126 C   0  0  2  0  0  0  0  0  0  0  0  0
   -0.8875   -1.0484    1.4223 C   0  0  2  0  0  0  0  0  0  0  0  0
    1.7053    1.1194    1.4241 C   0  0  0  0  0  0  0  0  0  0  0  0
    0.1336   -1.7599    2.2909 C   0  0  0  0  0  0  0  0  0  0  0  0
   -2.8256   -1.7276    0.0071 C   0  0  0  0  0  0  0  0  0  0  0  0
    5.3211    0.3010   -0.6037 C   0  0  0  0  0  0  0  0  0  0  0  0
    6.1175   -0.5457    0.1232 C   0  0  0  0  0  0  0  0  0  0  0  0
   -4.5229   -0.2449   -0.4393 C   0  0  0  0  0  0  0  0  0  0  0  0
   -4.5825   -2.4135   -1.3052 C   0  0  0  0  0  0  0  0  0  0  0  0
    7.1112    0.1639    0.8574 C   0  0  0  0  0  0  0  0  0  0  0  0
    7.0291    1.5244    0.6576 C   0  0  0  0  0  0  0  0  0  0  0  0
   -5.1941   -1.1812   -1.1992 C   0  0  0  0  0  0  0  0  0  0  0  0
   -5.0474    1.0805   -0.2442 C   0  0  0  0  0  0  0  0  0  0  0  0
   -6.1796    1.7299   -0.6711 C   0  0  0  0  0  0  0  0  0  0  0  0
   -6.1102    3.0348   -0.1276 C   0  0  0  0  0  0  0  0  0  0  0  0
   -4.9392    3.0869    0.5922 C   0  0  0  0  0  0  0  0  0  0  0  0
    1.3117   -1.5690   -0.5070 H   0  0  0  0  0  0  0  0  0  0  0  0
   -0.4650    0.0676   -0.4347 H   0  0  0  0  0  0  0  0  0  0  0  0
    3.2507   -0.2906    0.9995 H   0  0  0  0  0  0  0  0  0  0  0  0
   -1.5697   -0.4785    2.0636 H   0  0  0  0  0  0  0  0  0  0  0  0
    1.8767    0.8749    2.4783 H   0  0  0  0  0  0  0  0  0  0  0  0
    2.0525    2.1419    1.2467 H   0  0  0  0  0  0  0  0  0  0  0  0
    0.3701   -1.1666    3.1811 H   0  0  0  0  0  0  0  0  0  0  0  0
   -0.1773   -2.7572    2.6172 H   0  0  0  0  0  0  0  0  0  0  0  0
    1.8603    1.0443   -1.2969 H   0  0  0  0  0  0  0  0  0  0  0  0
   -1.2147   -2.9202    0.4472 H   0  0  0  0  0  0  0  0  0  0  0  0
    6.0003   -1.6215    0.1351 H   0  0  0  0  0  0  0  0  0  0  0  0
   -5.0347   -3.2134   -1.8817 H   0  0  0  0  0  0  0  0  0  0  0  0
    7.8485   -0.2998    1.4997 H   0  0  0  0  0  0  0  0  0  0  0  0
    7.6546    2.2935    1.0885 H   0  0  0  0  0  0  0  0  0  0  0  0
   -6.1394   -0.9884   -1.6903 H   0  0  0  0  0  0  0  0  0  0  0  0
   -6.9654    1.3281   -1.2951 H   0  0  0  0  0  0  0  0  0  0  0  0
   -6.8241    3.8370   -0.2457 H   0  0  0  0  0  0  0  0  0  0  0  0
   -4.4547    3.8548    1.1771 H   0  0  0  0  0  0  0  0  0  0  0  0
  1  5  2  0  0  0  0
  1  6  2  0  0  0  0
  1  8  1  0  0  0  0
  1 19  1  0  0  0  0
  2 19  1  0  0  0  0
  2 24  1  0  0  0  0
  3 13  1  0  0  0  0
  3 16  1  0  0  0  0
  4 12  1  0  0  0  0
  4 17  1  0  0  0  0
  7 26  1  0  0  0  0
  7 29  1  0  0  0  0
  8 14  1  0  0  0  0
  8 38  1  0  0  0  0
  9 15  1  0  0  0  0
  9 18  1  0  0  0  0
  9 39  1  0  0  0  0
 10 18  1  0  0  0  0
 10 21  2  0  0  0  0
 11 18  2  0  0  0  0
 11 22  1  0  0  0  0
 12 13  1  0  0  0  0
 12 14  1  0  0  0  0
 12 30  1  0  0  0  0
 13 15  1  0  0  0  0
 13 31  1  0  0  0  0
 14 16  1  0  0  0  0
 14 32  1  0  0  0  0
 15 17  1  0  0  0  0
 15 33  1  0  0  0  0
 16 34  1  0  0  0  0
 16 35  1  0  0  0  0
 17 36  1  0  0  0  0
 17 37  1  0  0  0  0
 19 20  2  0  0  0  0
 20 23  1  0  0  0  0
 20 40  1  0  0  0  0
 21 25  1  0  0  0  0
 21 26  1  0  0  0  0
 22 25  2  0  0  0  0
 22 41  1  0  0  0  0
 23 24  2  0  0  0  0
 23 42  1  0  0  0  0
 24 43  1  0  0  0  0
 25 44  1  0  0  0  0
 26 27  2  0  0  0  0
 27 28  1  0  0  0  0
 27 45  1  0  0  0  0
 28 29  2  0  0  0  0
 28 46  1  0  0  0  0
 29 47  1  0  0  0  0
M  END
> <PUBCHEM_COMPOUND_CID>
11912977

> <PUBCHEM_CONFORMER_RMSD>
1

> <PUBCHEM_CONFORMER_DIVERSEORDER>
2
250
154
156
148
237
40
353
132
202
221
109
151
264
211
282
125
332
34
244
228
52
241
225
115
254
187
283
306
185
164
69
346
97
261
287
62
172
251
295
354
158
121
343
117
307
133
146
195
269
147
268
364
57
276
314
326
341
322
94
348
84
356
275
205
291
165
233
257
312
285
110
144
73
75
108
331
150
335
219
105
286
35
212
39
197
311
301
243
344
230
161
124
273
352
8
189
87
303
267
355
9
215
103
270
177
277
246
290
6
365
162
20
361
357
90
319
318
274
180
320
184
256
345
333
350
316
252
245
302
169
157
127
249
61
259
281
360
88
78
68
231
198
86
53
76
96
153
214
299
284
210
92
63
143
339
135
181
362
203
207
130
255
223
99
347
336
159
288
25
129
349
240
77
216
272
24
175
72
29
188
122
260
134
338
10
300
196
118
126
363
226
136
80
280
54
106
258
85
166
199
176
67
51
49
236
218
217
232
145
323
183
120
64
305
38
194
329
160
155
95
328
42
104
337
128
263
209
89
190
182
47
58
359
81
66
279
123
22
342
265
140
327
298
11
21
235
71
26
309
192
351
325
1
171
278
173
82
308
224
27
313
50
186
17
152
170
293
116
113
91
292
23
74
208
149
31
111
238
56
324
227
55
83
334
98
310
242
213
239
30
266
33
294
167
200
48
234
317
330
296
248
297
79
201
179
247
138
100
193
191
65
46
44
229
204
141
28
253
220
174
304
289
16
168
321
142
139
32
107
7
18
101
315
45
59
37
178
14
358
222
119
19
60
36
131
102
70
137
114
340
5
41
13
262
206
112
43
15
12
93
163
4
271
3

> <PUBCHEM_MMFF94_PARTIAL_CHARGES>
39
1 1.5
10 -0.62
11 -0.62
12 0.28
13 0.28
14 0.36
15 0.37
16 0.28
17 0.28
18 0.72
19 -0.02
2 -0.08
20 -0.15
21 0.36
22 0.16
23 -0.15
24 -0.11
25 -0.15
26 0.09
27 -0.15
28 -0.15
29 -0.01
3 -0.56
38 0.42
39 0.4
4 -0.56
40 0.15
41 0.15
42 0.15
43 0.15
44 0.15
45 0.15
46 0.15
47 0.15
5 -0.65
6 -0.65
7 -0.28
8 -0.91
9 -0.87

> <PUBCHEM_EFFECTIVE_ROTOR_COUNT>
7.2

> <PUBCHEM_PHARMACOPHORE_FEATURES>
14
1 10 acceptor
1 3 acceptor
1 4 acceptor
1 5 acceptor
1 6 acceptor
1 7 acceptor
1 8 donor
1 9 donor
4 9 10 11 18 cation
5 2 19 20 23 24 rings
5 3 12 13 14 16 rings
5 4 12 13 15 17 rings
5 7 26 27 28 29 rings
6 10 11 18 21 22 25 rings

> <PUBCHEM_HEAVY_ATOM_COUNT>
29

> <PUBCHEM_ATOM_DEF_STEREO_COUNT>
4

> <PUBCHEM_ATOM_UDEF_STEREO_COUNT>
0

> <PUBCHEM_BOND_DEF_STEREO_COUNT>
0

> <PUBCHEM_BOND_UDEF_STEREO_COUNT>
0

> <PUBCHEM_ISOTOPIC_ATOM_COUNT>
0

> <PUBCHEM_COMPONENT_COUNT>
1

> <PUBCHEM_CACTVS_TAUTO_COUNT>
3

> <PUBCHEM_CONFORMER_ID>
00B5C71100000002

> <PUBCHEM_MMFF94_ENERGY>
59.9873

> <PUBCHEM_FEATURE_SELFOVERLAP>
71.787

> <PUBCHEM_SHAPE_FINGERPRINT>
10670039 82 18410565194160569901
10675989 125 17982460303814677671
10835480 77 18060699481500054128
10906281 52 17749683956303976942
11475781 23 18272093764673285076
12422481 6 16153425043471507702
12596602 18 8790885181473629406
12616971 3 17095530607984482604
13177829 73 18260269637707158372
13540713 5 18189595191302274067
13690498 29 17916296316099396487
13914758 101 18410293606346443082
14294032 229 18042401331708218444
14955137 171 11314309455949973518
15183329 4 18272090491380294684
15419008 42 17845659135900957556
16992727 255 18339360768937009857
17913733 40 15357694175918965641
18222031 100 12247677145542537322
18608769 82 18336834190875854131
20511986 3 17988636407353102926
20715895 44 18334017181712869048
21298829 104 18113336419226476512
21424621 283 18259985981061089544
21756936 100 18186804682261436243
21774942 28 18341330007658590864
22393880 68 18202274832006790715
23559900 14 17489298711540007147
249057 25 17168713058083661230
25147074 1 18187912946410309763
2838139 119 18334857242186283424
3009799 131 17989204854547573968
314194 84 13758362167406192566
38570 142 18042137470412707707
392239 28 12901554516169017821
4098825 35 18060419144768479915
4516262 110 18040988515295259855
46194498 28 17702945992886056037
5283173 99 18342738550430208192
5385378 56 17458339694297335658
6299153 45 18114456752465281552
6328613 192 18410286974083339065

> <PUBCHEM_SHAPE_MULTIPOLES>
555.23
19.05
2.95
1.77
8.82
0.78
-0.39
10.92
-4.58
-5.64
0.16
1.55
-0.51
-1.08

> <PUBCHEM_SHAPE_SELFOVERLAP>
1194.534

> <PUBCHEM_SHAPE_VOLUME>
307.8

> <PUBCHEM_COORDINATE_TYPE>
2
5
10

$$$$
