11885335
  -OEChem-12032416213D

 56 60  0     1  0  0  0  0  0999 V2000
   -7.3804   -1.5190    0.0409 S   0  0  0  0  0  0  0  0  0  0  0  0
    4.6808   -3.7252    0.1075 O   0  0  0  0  0  0  0  0  0  0  0  0
   -1.4182    0.7785   -1.8323 O   0  0  0  0  0  0  0  0  0  0  0  0
    3.2506    0.2171   -0.0902 N   0  0  2  0  0  0  0  0  0  0  0  0
    0.3525    1.4876   -0.4909 N   0  0  0  0  0  0  0  0  0  0  0  0
    2.6114    2.2214   -1.4541 C   0  0  1  0  0  0  0  0  0  0  0  0
    2.2567    2.2503    0.9684 C   0  0  2  0  0  0  0  0  0  0  0  0
    2.6827    3.1094   -0.2190 C   0  0  0  0  0  0  0  0  0  0  0  0
    3.5522    1.0090   -1.2890 C   0  0  0  0  0  0  0  0  0  0  0  0
    3.2277    1.0568    1.1169 C   0  0  0  0  0  0  0  0  0  0  0  0
    1.1513    1.8080   -1.6825 C   0  0  0  0  0  0  0  0  0  0  0  0
    4.1944   -0.8881    0.0591 C   0  0  0  0  0  0  0  0  0  0  0  0
    0.8325    1.7568    0.7930 C   0  0  0  0  0  0  0  0  0  0  0  0
    3.7998   -1.7684    1.2484 C   0  0  0  0  0  0  0  0  0  0  0  0
    4.2619   -1.7316   -1.2179 C   0  0  0  0  0  0  0  0  0  0  0  0
    0.0439    1.5617    1.8618 C   0  0  0  0  0  0  0  0  0  0  0  0
   -0.9487    0.9961   -0.7139 C   0  0  0  0  0  0  0  0  0  0  0  0
    4.7107   -2.9886    1.3300 C   0  0  0  0  0  0  0  0  0  0  0  0
    5.1473   -2.9536   -0.9995 C   0  0  0  0  0  0  0  0  0  0  0  0
   -1.7974    0.7546    0.5056 C   0  0  0  0  0  0  0  0  0  0  0  0
   -1.2878    1.0472    1.7116 C   0  0  0  0  0  0  0  0  0  0  0  0
   -3.1579    0.2003    0.3915 C   0  0  0  0  0  0  0  0  0  0  0  0
   -4.2513    1.0563    0.2557 C   0  0  0  0  0  0  0  0  0  0  0  0
   -3.3542   -1.1810    0.4199 C   0  0  0  0  0  0  0  0  0  0  0  0
   -5.5395    0.5317    0.1483 C   0  0  0  0  0  0  0  0  0  0  0  0
   -4.6422   -1.7053    0.3124 C   0  0  0  0  0  0  0  0  0  0  0  0
   -5.7348   -0.8491    0.1766 C   0  0  0  0  0  0  0  0  0  0  0  0
   -7.2440   -2.5330   -1.4584 C   0  0  0  0  0  0  0  0  0  0  0  0
    2.9506    2.7868   -2.3312 H   0  0  0  0  0  0  0  0  0  0  0  0
    2.3249    2.8660    1.8751 H   0  0  0  0  0  0  0  0  0  0  0  0
    2.0287    3.9836   -0.3279 H   0  0  0  0  0  0  0  0  0  0  0  0
    3.7028    3.4858   -0.0747 H   0  0  0  0  0  0  0  0  0  0  0  0
    3.4255    0.4160   -2.2003 H   0  0  0  0  0  0  0  0  0  0  0  0
    4.5908    1.3658   -1.2654 H   0  0  0  0  0  0  0  0  0  0  0  0
    4.2329    1.4376    1.3433 H   0  0  0  0  0  0  0  0  0  0  0  0
    2.8880    0.4934    1.9915 H   0  0  0  0  0  0  0  0  0  0  0  0
    0.6268    2.6390   -2.1739 H   0  0  0  0  0  0  0  0  0  0  0  0
    1.0930    0.9623   -2.3792 H   0  0  0  0  0  0  0  0  0  0  0  0
    5.2022   -0.4897    0.2492 H   0  0  0  0  0  0  0  0  0  0  0  0
    2.7613   -2.1050    1.1317 H   0  0  0  0  0  0  0  0  0  0  0  0
    3.8833   -1.2470    2.2062 H   0  0  0  0  0  0  0  0  0  0  0  0
    4.6882   -1.1814   -2.0625 H   0  0  0  0  0  0  0  0  0  0  0  0
    3.2542   -2.0662   -1.4963 H   0  0  0  0  0  0  0  0  0  0  0  0
    0.3942    1.7569    2.8699 H   0  0  0  0  0  0  0  0  0  0  0  0
    5.7442   -2.7017    1.5577 H   0  0  0  0  0  0  0  0  0  0  0  0
    4.3694   -3.6553    2.1283 H   0  0  0  0  0  0  0  0  0  0  0  0
    5.1220   -3.5951   -1.8862 H   0  0  0  0  0  0  0  0  0  0  0  0
    6.1915   -2.6660   -0.8290 H   0  0  0  0  0  0  0  0  0  0  0  0
   -1.8572    0.8905    2.6231 H   0  0  0  0  0  0  0  0  0  0  0  0
   -4.1150    2.1348    0.2310 H   0  0  0  0  0  0  0  0  0  0  0  0
   -2.5125   -1.8612    0.5262 H   0  0  0  0  0  0  0  0  0  0  0  0
   -6.3788    1.2148    0.0429 H   0  0  0  0  0  0  0  0  0  0  0  0
   -4.7710   -2.7844    0.3442 H   0  0  0  0  0  0  0  0  0  0  0  0
   -6.8897   -1.9268   -2.2966 H   0  0  0  0  0  0  0  0  0  0  0  0
   -8.2292   -2.9346   -1.7094 H   0  0  0  0  0  0  0  0  0  0  0  0
   -6.5592   -3.3699   -1.2993 H   0  0  0  0  0  0  0  0  0  0  0  0
  1 27  1  0  0  0  0
  1 28  1  0  0  0  0
  2 18  1  0  0  0  0
  2 19  1  0  0  0  0
  3 17  2  0  0  0  0
  4  9  1  0  0  0  0
  4 10  1  0  0  0  0
  4 12  1  0  0  0  0
  5 11  1  0  0  0  0
  5 13  1  0  0  0  0
  5 17  1  0  0  0  0
  6  8  1  0  0  0  0
  6  9  1  0  0  0  0
  6 11  1  0  0  0  0
  6 29  1  0  0  0  0
  7  8  1  0  0  0  0
  7 10  1  0  0  0  0
  7 13  1  0  0  0  0
  7 30  1  0  0  0  0
  8 31  1  0  0  0  0
  8 32  1  0  0  0  0
  9 33  1  0  0  0  0
  9 34  1  0  0  0  0
 10 35  1  0  0  0  0
 10 36  1  0  0  0  0
 11 37  1  0  0  0  0
 11 38  1  0  0  0  0
 12 14  1  0  0  0  0
 12 15  1  0  0  0  0
 12 39  1  0  0  0  0
 13 16  2  0  0  0  0
 14 18  1  0  0  0  0
 14 40  1  0  0  0  0
 14 41  1  0  0  0  0
 15 19  1  0  0  0  0
 15 42  1  0  0  0  0
 15 43  1  0  0  0  0
 16 21  1  0  0  0  0
 16 44  1  0  0  0  0
 17 20  1  0  0  0  0
 18 45  1  0  0  0  0
 18 46  1  0  0  0  0
 19 47  1  0  0  0  0
 19 48  1  0  0  0  0
 20 21  2  0  0  0  0
 20 22  1  0  0  0  0
 21 49  1  0  0  0  0
 22 23  2  0  0  0  0
 22 24  1  0  0  0  0
 23 25  1  0  0  0  0
 23 50  1  0  0  0  0
 24 26  2  0  0  0  0
 24 51  1  0  0  0  0
 25 27  2  0  0  0  0
 25 52  1  0  0  0  0
 26 27  1  0  0  0  0
 26 53  1  0  0  0  0
 28 54  1  0  0  0  0
 28 55  1  0  0  0  0
 28 56  1  0  0  0  0
M  END
> <PUBCHEM_COMPOUND_CID>
11885335

> <PUBCHEM_CONFORMER_RMSD>
0.8

> <PUBCHEM_CONFORMER_DIVERSEORDER>
1
5
3
8
4
7
2
6

> <PUBCHEM_MMFF94_PARTIAL_CHARGES>
30
1 -0.33
10 0.27
11 0.3
12 0.27
13 -0.03
16 -0.15
17 0.62
18 0.28
19 0.28
2 -0.56
20 -0.01
21 -0.15
22 0.03
23 -0.15
24 -0.15
25 -0.15
26 -0.15
27 0.1
28 0.23
3 -0.57
4 -0.81
44 0.15
49 0.15
5 -0.47
50 0.15
51 0.15
52 0.15
53 0.15
7 0.14
9 0.27

> <PUBCHEM_EFFECTIVE_ROTOR_COUNT>
5.2

> <PUBCHEM_PHARMACOPHORE_FEATURES>
9
1 2 acceptor
1 28 hydrophobe
1 3 acceptor
1 4 cation
6 2 12 14 15 18 19 rings
6 22 23 24 25 26 27 rings
6 4 6 7 8 9 10 rings
6 5 13 16 17 20 21 rings
6 5 6 7 8 11 13 rings

> <PUBCHEM_HEAVY_ATOM_COUNT>
28

> <PUBCHEM_ATOM_DEF_STEREO_COUNT>
2

> <PUBCHEM_ATOM_UDEF_STEREO_COUNT>
0

> <PUBCHEM_BOND_DEF_STEREO_COUNT>
0

> <PUBCHEM_BOND_UDEF_STEREO_COUNT>
0

> <PUBCHEM_ISOTOPIC_ATOM_COUNT>
0

> <PUBCHEM_COMPONENT_COUNT>
1

> <PUBCHEM_CACTVS_TAUTO_COUNT>
1

> <PUBCHEM_CONFORMER_ID>
00B55B1700000001

> <PUBCHEM_MMFF94_ENERGY>
75.1027

> <PUBCHEM_FEATURE_SELFOVERLAP>
47.225

> <PUBCHEM_SHAPE_FINGERPRINT>
10042902 136 18055086367645902998
10498660 4 12540997178515435510
10554248 39 11458963443773024899
117089 54 17914070706743607598
11796584 16 18272101529847204797
11954058 11 18342178847540426518
11963148 33 17982725570228833631
1200032 147 12175326038420876898
12107183 9 18195536883086885609
12166972 35 18411423886333969919
12422481 6 16415200010054455717
12895836 83 12396883123883684458
12895837 130 7923898251613358322
13533116 47 18411702131785177585
13583140 156 17986391303055822097
1361 2 18334577940616609858
1361 4 18268428122077493575
13631057 29 18046070355450885098
13782708 43 18201999984818635071
14068700 675 18341051800930264930
14251740 57 18343019965520125530
14347332 77 18413105070431861145
14848178 5 18341611460764572954
15001296 14 18264480853531887187
15163728 17 10231454342802440888
15183329 4 17894346701059461525
15475509 35 18202277043703977915
15475509 8 17313387773688589941
15664445 248 16951133992393185140
17349148 13 16559040410792343913
19438510 23 9294991458777962030
1979834 28 16917073222108221726
19958102 18 18188480385459194759
20028762 73 18201719531079745087
20567600 234 13614229391644773531
20567600 247 18408884036080512843
20775438 99 18115300223565443306
20775530 9 18338507531229650614
21033648 29 14620522173139561409
21344244 181 17822017544877446195
21641784 216 14707196704996066295
23522609 53 17912677810838049409
23559900 14 18410290307321131345
23569914 152 17174573258340772039
25222932 49 17630321080554238388
2838139 119 8213556889037140810
29717793 49 18041272275326739453
3004659 81 18410578383208628890
345986 75 17704357649530335128
3472631 163 9151178645084377609
34797466 226 17023467577050726861
3886686 26 16694728692301845515
44062 13 18190460459027697917
46194498 28 17531250590630382916
463206 1 18041286448291828354
465052 167 17988929971902726293
4756326 101 14707793817710892582
484985 159 17544477458146617302
5104073 3 17489877033577318841
5372103 7 14925096910272353518
56633871 153 17631727145647535318
5951187 136 13912896383834121886
59682541 52 18114177571191147127
6201320 221 18058145329465172383
6695519 79 17476103674132262240
7808743 9 7997384097964150872
7970288 3 18196093231728540678
960060 61 17676500436130239452

> <PUBCHEM_SHAPE_MULTIPOLES>
558.38
15.92
3.75
1.63
25.2
2.32
-0.12
16.34
-2.27
-5.63
-0.18
-0.91
-0.28
-1.41

> <PUBCHEM_SHAPE_SELFOVERLAP>
1196.977

> <PUBCHEM_SHAPE_VOLUME>
310.6

> <PUBCHEM_COORDINATE_TYPE>
2
5
10

$$$$
