45784181
  -OEChem-12032416243D

 46 49  0     1  0  0  0  0  0999 V2000
   -7.4393   -1.7131    1.5352 Cl  0  0  0  0  0  0  0  0  0  0  0  0
   -3.0766    0.7084   -1.4298 O   0  0  0  0  0  0  0  0  0  0  0  0
    7.5181    0.0079    0.2535 O   0  0  0  0  0  0  0  0  0  0  0  0
    1.4628    0.9935   -0.1580 N   0  0  1  0  0  0  0  0  0  0  0  0
    5.3070   -0.7046    0.2893 N   0  0  0  0  0  0  0  0  0  0  0  0
   -2.6204    0.1485    0.7184 N   0  0  0  0  0  0  0  0  0  0  0  0
    2.5559    0.1918    0.3868 C   0  0  0  0  0  0  0  0  0  0  0  0
   -0.8050    1.2188   -0.7109 C   0  0  2  0  0  0  0  0  0  0  0  0
    0.3096    0.1774   -0.5435 C   0  0  0  0  0  0  0  0  0  0  0  0
    0.9380    1.9531    0.8135 C   0  0  0  0  0  0  0  0  0  0  0  0
   -0.3716    2.3990    0.1762 C   0  0  0  0  0  0  0  0  0  0  0  0
    3.0322   -0.8274   -0.6565 C   0  0  0  0  0  0  0  0  0  0  0  0
    3.7142    1.1022    0.8146 C   0  0  0  0  0  0  0  0  0  0  0  0
    4.2385   -1.6138   -0.1435 C   0  0  0  0  0  0  0  0  0  0  0  0
    4.9056    0.2776    1.2986 C   0  0  0  0  0  0  0  0  0  0  0  0
   -2.1783    0.6664   -0.4064 C   0  0  0  0  0  0  0  0  0  0  0  0
    6.6289   -0.7449   -0.1526 C   0  0  0  0  0  0  0  0  0  0  0  0
   -3.9207   -0.1833    0.4243 C   0  0  0  0  0  0  0  0  0  0  0  0
   -4.2036    0.1579   -0.8900 C   0  0  0  0  0  0  0  0  0  0  0  0
    6.9617   -1.7827   -1.1947 C   0  0  0  0  0  0  0  0  0  0  0  0
   -4.9269   -0.7730    1.2030 C   0  0  0  0  0  0  0  0  0  0  0  0
   -5.4295   -0.0405   -1.5133 C   0  0  0  0  0  0  0  0  0  0  0  0
   -6.1785   -0.9894    0.6084 C   0  0  0  0  0  0  0  0  0  0  0  0
   -6.4222   -0.6296   -0.7229 C   0  0  0  0  0  0  0  0  0  0  0  0
    2.2109   -0.3614    1.2726 H   0  0  0  0  0  0  0  0  0  0  0  0
   -0.8023    1.5703   -1.7526 H   0  0  0  0  0  0  0  0  0  0  0  0
    0.0540   -0.5581    0.2310 H   0  0  0  0  0  0  0  0  0  0  0  0
    0.4655   -0.3526   -1.4892 H   0  0  0  0  0  0  0  0  0  0  0  0
    1.5922    2.8176    0.9621 H   0  0  0  0  0  0  0  0  0  0  0  0
    0.7374    1.4854    1.7860 H   0  0  0  0  0  0  0  0  0  0  0  0
   -0.2043    3.2831   -0.4517 H   0  0  0  0  0  0  0  0  0  0  0  0
   -1.1136    2.6666    0.9359 H   0  0  0  0  0  0  0  0  0  0  0  0
    2.2468   -1.5501   -0.9033 H   0  0  0  0  0  0  0  0  0  0  0  0
    3.3093   -0.3124   -1.5861 H   0  0  0  0  0  0  0  0  0  0  0  0
    4.0308    1.7294   -0.0294 H   0  0  0  0  0  0  0  0  0  0  0  0
    3.4227    1.7724    1.6305 H   0  0  0  0  0  0  0  0  0  0  0  0
    4.5769   -2.3032   -0.9189 H   0  0  0  0  0  0  0  0  0  0  0  0
    3.9575   -2.2192    0.7266 H   0  0  0  0  0  0  0  0  0  0  0  0
    4.6460   -0.2758    2.2089 H   0  0  0  0  0  0  0  0  0  0  0  0
    5.7381    0.9435    1.5471 H   0  0  0  0  0  0  0  0  0  0  0  0
    8.0204   -1.7047   -1.4608 H   0  0  0  0  0  0  0  0  0  0  0  0
    6.7830   -2.7862   -0.7997 H   0  0  0  0  0  0  0  0  0  0  0  0
    6.3704   -1.6141   -2.0986 H   0  0  0  0  0  0  0  0  0  0  0  0
   -4.7342   -1.0507    2.2345 H   0  0  0  0  0  0  0  0  0  0  0  0
   -5.6076    0.2413   -2.5435 H   0  0  0  0  0  0  0  0  0  0  0  0
   -7.4003   -0.8060   -1.1664 H   0  0  0  0  0  0  0  0  0  0  0  0
  1 23  1  0  0  0  0
  2 16  1  0  0  0  0
  2 19  1  0  0  0  0
  3 17  2  0  0  0  0
  4  7  1  0  0  0  0
  4  9  1  0  0  0  0
  4 10  1  0  0  0  0
  5 14  1  0  0  0  0
  5 15  1  0  0  0  0
  5 17  1  0  0  0  0
  6 16  2  0  0  0  0
  6 18  1  0  0  0  0
  7 12  1  0  0  0  0
  7 13  1  0  0  0  0
  7 25  1  0  0  0  0
  8  9  1  0  0  0  0
  8 11  1  0  0  0  0
  8 16  1  0  0  0  0
  8 26  1  0  0  0  0
  9 27  1  0  0  0  0
  9 28  1  0  0  0  0
 10 11  1  0  0  0  0
 10 29  1  0  0  0  0
 10 30  1  0  0  0  0
 11 31  1  0  0  0  0
 11 32  1  0  0  0  0
 12 14  1  0  0  0  0
 12 33  1  0  0  0  0
 12 34  1  0  0  0  0
 13 15  1  0  0  0  0
 13 35  1  0  0  0  0
 13 36  1  0  0  0  0
 14 37  1  0  0  0  0
 14 38  1  0  0  0  0
 15 39  1  0  0  0  0
 15 40  1  0  0  0  0
 17 20  1  0  0  0  0
 18 19  2  0  0  0  0
 18 21  1  0  0  0  0
 19 22  1  0  0  0  0
 20 41  1  0  0  0  0
 20 42  1  0  0  0  0
 20 43  1  0  0  0  0
 21 23  2  0  0  0  0
 21 44  1  0  0  0  0
 22 24  2  0  0  0  0
 22 45  1  0  0  0  0
 23 24  1  0  0  0  0
 24 46  1  0  0  0  0
M  END
> <PUBCHEM_COMPOUND_CID>
45784181

> <PUBCHEM_CONFORMER_RMSD>
0.8

> <PUBCHEM_CONFORMER_DIVERSEORDER>
1
47
41
35
54
18
11
48
29
52
17
32
34
31
36
51
12
44
37
49
42
28
45
13
21
43
53
39
25
16
50
26
15
6
24
5
23
40
46
10
33
20
14
38
22
30
9
2
27
7
19
4
3
8

> <PUBCHEM_MMFF94_PARTIAL_CHARGES>
24
1 -0.18
10 0.27
14 0.3
15 0.3
16 0.3
17 0.57
18 0.23
19 0.14
2 -0.28
20 0.06
21 -0.15
22 -0.15
23 0.18
24 -0.15
3 -0.57
4 -0.81
44 0.15
45 0.15
46 0.15
5 -0.66
6 -0.57
7 0.27
8 0.18
9 0.27

> <PUBCHEM_EFFECTIVE_ROTOR_COUNT>
5.2

> <PUBCHEM_PHARMACOPHORE_FEATURES>
6
1 3 acceptor
1 4 cation
5 2 6 16 18 19 rings
5 4 8 9 10 11 rings
6 18 19 21 22 23 24 rings
6 5 7 12 13 14 15 rings

> <PUBCHEM_HEAVY_ATOM_COUNT>
24

> <PUBCHEM_ATOM_DEF_STEREO_COUNT>
1

> <PUBCHEM_ATOM_UDEF_STEREO_COUNT>
0

> <PUBCHEM_BOND_DEF_STEREO_COUNT>
0

> <PUBCHEM_BOND_UDEF_STEREO_COUNT>
0

> <PUBCHEM_ISOTOPIC_ATOM_COUNT>
0

> <PUBCHEM_COMPONENT_COUNT>
1

> <PUBCHEM_CACTVS_TAUTO_COUNT>
1

> <PUBCHEM_CONFORMER_ID>
02BA9C7500000001

> <PUBCHEM_MMFF94_ENERGY>
39.8559

> <PUBCHEM_FEATURE_SELFOVERLAP>
30.566

> <PUBCHEM_SHAPE_FINGERPRINT>
10299344 5 17060618902342719190
10595046 47 15140954032983396948
10670039 82 11242239754103807167
11315181 36 17894351077573432405
11524674 6 18342458175514309919
11796584 16 17822284687252324979
12236239 1 16774074102716557321
12403259 118 12967119549826924497
12516196 113 18412541015817360936
12596602 18 16271920545146767138
12760667 363 18413670201827794081
12778500 126 13686305647679787846
13288520 33 17748543754261358341
13402501 40 18334015003748361971
13533116 47 18059571438304460472
13668630 136 18187367623102773918
13673619 4 18113621209659821285
13685833 64 18408887351847753011
14123256 34 18408044017702242011
1420 363 18411418402013920502
14251764 18 16558746841039651340
14598715 104 10735881625715251899
14729087 3 11167944654082345195
14849402 71 16629951257294392568
15142383 8 11815896752473267202
15183329 4 14923941254203770079
15238133 3 13830127317442552818
15510800 12 18187940511980323091
15537594 2 18343575235935047286
15716309 27 17846779602505156991
1577012 14 14056991703316918917
1813 80 18130798849144183628
18335252 114 7853578985131409514
18335252 98 18412548700616302606
18681886 176 16660361523582245429
20281389 69 11024102153543357430
20554085 129 11602820263612307748
20715895 44 7925622316004901598
21049683 271 18335425707733099892
21150785 3 15213020461821897707
21267235 1 18411422808138656716
21365058 113 18113903783568411932
21521239 73 14851598869743535008
21623969 137 18413953879653482742
22224240 67 17060331933886708662
22288116 15 13912617082136619473
2297311 6 17458060474426257789
23198884 109 14201396071551279347
23522609 53 17702689750943352824
23559900 14 17458341987356411437
246663 6 18202848738885910470
2747138 104 18413673521747635712
2767999 5 8574711303984539254
2838139 119 10303806562405748307
2916195 48 11312056556687236365
29717793 49 14996279176973804930
300161 21 10665231453852561376
3004659 81 17313103072521292716
312425 54 16200137812331818686
335352 9 16950553391015174943
3383291 50 18336266825264055731
34797466 226 17458349688164091148
3663271 9 16271920549452231626
4340502 62 13542465371723122908
437815 12 18408039628636321953
465052 167 18341897406844254956
5104073 3 17915733185920164666
5283384 27 9007055751431160026
5385378 56 12894806821356238597
59682541 35 18342166792342518152
59755656 215 18334011670911853322
59755656 520 10807928249989987284
6009941 240 18339081480821150929
636775 8 18334586728720863118
8863177 126 18115875272952894427
9663363 56 18410847759288970205
9862886 166 17821452369582039706
999808 66 18408890646351913187

> <PUBCHEM_SHAPE_MULTIPOLES>
469.1
21.31
1.77
1.31
4.56
0.37
-0.01
-13.68
1.8
0.73
0.17
-1.34
-0.17
2.27

> <PUBCHEM_SHAPE_SELFOVERLAP>
999.437

> <PUBCHEM_SHAPE_VOLUME>
263.4

> <PUBCHEM_COORDINATE_TYPE>
2
5
10

$$$$
