11886118
  -OEChem-12032416133D

 52 56  0     1  0  0  0  0  0999 V2000
   -6.6629   -3.0142   -0.9957 F   0  0  0  0  0  0  0  0  0  0  0  0
   -8.4599   -1.8237   -0.7561 F   0  0  0  0  0  0  0  0  0  0  0  0
   -7.3572   -2.4872    0.9966 F   0  0  0  0  0  0  0  0  0  0  0  0
    2.0080    3.0032    0.1397 O   0  0  0  0  0  0  0  0  0  0  0  0
    2.0853    0.4867    2.0246 O   0  0  0  0  0  0  0  0  0  0  0  0
   -2.2756    2.5953    0.3181 O   0  0  0  0  0  0  0  0  0  0  0  0
    3.9916    0.6958   -1.0837 N   0  0  0  0  0  0  0  0  0  0  0  0
   -0.8566    1.0121    1.2264 N   0  0  0  0  0  0  0  0  0  0  0  0
    3.6835    1.3697   -2.1964 N   0  0  0  0  0  0  0  0  0  0  0  0
    4.8788   -0.4462   -2.6908 N   0  0  0  0  0  0  0  0  0  0  0  0
    4.2304    0.6653   -3.1798 N   0  0  0  0  0  0  0  0  0  0  0  0
   -2.9821    0.3783    0.6291 N   0  0  0  0  0  0  0  0  0  0  0  0
    2.1698    0.6695    0.5995 C   0  0  1  0  0  0  0  0  0  0  0  0
    1.2281    1.8010    0.2363 C   0  0  1  0  0  0  0  0  0  0  0  0
    3.5484    1.1805    0.2261 C   0  0  2  0  0  0  0  0  0  0  0  0
    0.2768    1.8863    1.4086 C   0  0  2  0  0  0  0  0  0  0  0  0
    3.3944    2.6934    0.3364 C   0  0  0  0  0  0  0  0  0  0  0  0
    1.1455    1.4263    2.5645 C   0  0  0  0  0  0  0  0  0  0  0  0
    4.7175   -0.4059   -1.3882 C   0  0  0  0  0  0  0  0  0  0  0  0
   -2.0742    1.4396    0.6833 C   0  0  0  0  0  0  0  0  0  0  0  0
    5.2136   -1.3541   -0.4239 C   0  0  0  0  0  0  0  0  0  0  0  0
    6.4730   -1.1738    0.1507 C   0  0  0  0  0  0  0  0  0  0  0  0
    4.4361   -2.4555   -0.0617 C   0  0  0  0  0  0  0  0  0  0  0  0
   -4.3126    0.3977    0.1495 C   0  0  0  0  0  0  0  0  0  0  0  0
    6.9533   -2.0916    1.0848 C   0  0  0  0  0  0  0  0  0  0  0  0
    4.9165   -3.3734    0.8724 C   0  0  0  0  0  0  0  0  0  0  0  0
   -5.0623   -0.7667    0.1805 C   0  0  0  0  0  0  0  0  0  0  0  0
    6.1750   -3.1915    1.4456 C   0  0  0  0  0  0  0  0  0  0  0  0
   -4.8394    1.5818   -0.3403 C   0  0  0  0  0  0  0  0  0  0  0  0
   -6.3749   -0.7467   -0.2914 C   0  0  0  0  0  0  0  0  0  0  0  0
   -6.1518    1.6018   -0.8122 C   0  0  0  0  0  0  0  0  0  0  0  0
   -6.9196    0.4376   -0.7878 C   0  0  0  0  0  0  0  0  0  0  0  0
   -7.1966   -1.9913   -0.2647 C   0  0  0  0  0  0  0  0  0  0  0  0
    1.8932   -0.2812    0.1327 H   0  0  0  0  0  0  0  0  0  0  0  0
    0.7378    1.6519   -0.7312 H   0  0  0  0  0  0  0  0  0  0  0  0
    4.3176    0.8585    0.9374 H   0  0  0  0  0  0  0  0  0  0  0  0
   -0.0892    2.9036    1.5844 H   0  0  0  0  0  0  0  0  0  0  0  0
    4.0029    3.2665   -0.3695 H   0  0  0  0  0  0  0  0  0  0  0  0
    3.6530    3.0288    1.3473 H   0  0  0  0  0  0  0  0  0  0  0  0
    0.5863    0.9544    3.3781 H   0  0  0  0  0  0  0  0  0  0  0  0
    1.7211    2.2610    2.9796 H   0  0  0  0  0  0  0  0  0  0  0  0
   -0.7454    0.0257    1.4414 H   0  0  0  0  0  0  0  0  0  0  0  0
   -2.6541   -0.5196    0.9760 H   0  0  0  0  0  0  0  0  0  0  0  0
    7.0918   -0.3212   -0.1195 H   0  0  0  0  0  0  0  0  0  0  0  0
    3.4526   -2.6113   -0.4988 H   0  0  0  0  0  0  0  0  0  0  0  0
    7.9331   -1.9499    1.5314 H   0  0  0  0  0  0  0  0  0  0  0  0
    4.3104   -4.2296    1.1537 H   0  0  0  0  0  0  0  0  0  0  0  0
   -4.6390   -1.6902    0.5674 H   0  0  0  0  0  0  0  0  0  0  0  0
    6.5488   -3.9061    2.1731 H   0  0  0  0  0  0  0  0  0  0  0  0
   -4.3111    2.5221   -0.3930 H   0  0  0  0  0  0  0  0  0  0  0  0
   -6.5771    2.5235   -1.1990 H   0  0  0  0  0  0  0  0  0  0  0  0
   -7.9398    0.4731   -1.1597 H   0  0  0  0  0  0  0  0  0  0  0  0
  1 33  1  0  0  0  0
  2 33  1  0  0  0  0
  3 33  1  0  0  0  0
  4 14  1  0  0  0  0
  4 17  1  0  0  0  0
  5 13  1  0  0  0  0
  5 18  1  0  0  0  0
  6 20  2  0  0  0  0
  7  9  1  0  0  0  0
  7 15  1  0  0  0  0
  7 19  1  0  0  0  0
  8 16  1  0  0  0  0
  8 20  1  0  0  0  0
  8 42  1  0  0  0  0
  9 11  2  0  0  0  0
 10 11  1  0  0  0  0
 10 19  2  0  0  0  0
 12 20  1  0  0  0  0
 12 24  1  0  0  0  0
 12 43  1  0  0  0  0
 13 14  1  0  0  0  0
 13 15  1  0  0  0  0
 13 34  1  0  0  0  0
 14 16  1  0  0  0  0
 14 35  1  0  0  0  0
 15 17  1  0  0  0  0
 15 36  1  0  0  0  0
 16 18  1  0  0  0  0
 16 37  1  0  0  0  0
 17 38  1  0  0  0  0
 17 39  1  0  0  0  0
 18 40  1  0  0  0  0
 18 41  1  0  0  0  0
 19 21  1  0  0  0  0
 21 22  2  0  0  0  0
 21 23  1  0  0  0  0
 22 25  1  0  0  0  0
 22 44  1  0  0  0  0
 23 26  2  0  0  0  0
 23 45  1  0  0  0  0
 24 27  1  0  0  0  0
 24 29  2  0  0  0  0
 25 28  2  0  0  0  0
 25 46  1  0  0  0  0
 26 28  1  0  0  0  0
 26 47  1  0  0  0  0
 27 30  2  0  0  0  0
 27 48  1  0  0  0  0
 28 49  1  0  0  0  0
 29 31  1  0  0  0  0
 29 50  1  0  0  0  0
 30 32  1  0  0  0  0
 30 33  1  0  0  0  0
 31 32  2  0  0  0  0
 31 51  1  0  0  0  0
 32 52  1  0  0  0  0
M  END
> <PUBCHEM_COMPOUND_CID>
11886118

> <PUBCHEM_CONFORMER_RMSD>
1

> <PUBCHEM_CONFORMER_DIVERSEORDER>
1
113
110
116
40
133
139
70
54
144
103
112
148
64
79
81
155
101
6
142
158
108
73
99
106
76
150
132
126
37
63
134
39
127
145
105
115
59
147
96
151
90
68
122
143
75
131
120
7
100
157
61
153
130
60
94
84
38
20
88
149
21
119
89
30
36
125
49
74
62
71
48
69
109
28
107
31
141
95
111
52
80
146
121
104
53
118
17
25
124
42
41
98
92
129
72
135
18
22
117
86
154
140
57
55
66
77
24
58
43
51
87
93
83
114
56
156
152
29
91
128
78
13
123
34
102
47
97
45
15
65
46
137
11
67
5
33
16
136
85
26
35
44
10
8
82
138
14
19
12
3
4
27
50
2
23
9
32

> <PUBCHEM_MMFF94_PARTIAL_CHARGES>
43
1 -0.34
10 -0.34
12 -0.55
13 0.28
14 0.28
15 0.26
16 0.3
17 0.28
18 0.28
19 0.13
2 -0.34
20 0.69
21 0.05
22 -0.15
23 -0.15
24 0.12
25 -0.15
26 -0.15
27 -0.15
28 -0.15
29 -0.15
3 -0.34
30 -0.14
31 -0.15
32 -0.15
33 1.16
4 -0.56
42 0.37
43 0.37
44 0.15
45 0.15
46 0.15
47 0.15
48 0.15
49 0.15
5 -0.56
50 0.15
51 0.15
52 0.15
6 -0.57
7 0.31
8 -0.73
9 -0.42

> <PUBCHEM_EFFECTIVE_ROTOR_COUNT>
8.2

> <PUBCHEM_PHARMACOPHORE_FEATURES>
11
1 12 donor
1 4 acceptor
1 5 acceptor
1 6 acceptor
1 8 donor
3 7 10 19 cation
5 4 13 14 15 17 rings
5 5 13 14 16 18 rings
5 7 9 10 11 19 rings
6 21 22 23 25 26 28 rings
6 24 27 29 30 31 32 rings

> <PUBCHEM_HEAVY_ATOM_COUNT>
33

> <PUBCHEM_ATOM_DEF_STEREO_COUNT>
4

> <PUBCHEM_ATOM_UDEF_STEREO_COUNT>
0

> <PUBCHEM_BOND_DEF_STEREO_COUNT>
0

> <PUBCHEM_BOND_UDEF_STEREO_COUNT>
0

> <PUBCHEM_ISOTOPIC_ATOM_COUNT>
0

> <PUBCHEM_COMPONENT_COUNT>
1

> <PUBCHEM_CACTVS_TAUTO_COUNT>
3

> <PUBCHEM_CONFORMER_ID>
00B55E2600000001

> <PUBCHEM_MMFF94_ENERGY>
80.7987

> <PUBCHEM_FEATURE_SELFOVERLAP>
56.566

> <PUBCHEM_SHAPE_FINGERPRINT>
10 15 9871459938059769101
10670039 82 13984663586410908870
10693767 8 18114739331354407282
10883706 17 18333734645189075850
1200032 147 10807926094770219494
12355185 293 17967808306695315061
12661589 4 18341888640758488427
12758862 65 17489582373114643978
13782708 43 18131633409298742677
13947930 73 17703781557293544599
14150023 79 18197214965902338864
14347332 77 18411700946232246833
15183329 4 18340495473452527121
15350500 16 16879060842780283442
15352257 5 18411982468880722639
15510800 12 17703517610057289358
17134984 74 18411986884022525070
19958102 18 18260543459579817679
20105231 36 18114185260010977371
20567600 247 18410012104871902746
20691028 202 10881392150054838363
20775438 99 17823141297004948144
21223535 225 15864630536123813597
21315764 119 17676773084643350973
21362857 166 18187922941247833863
21585481 104 17385439891695774981
2303208 19 18130227155544247329
23522609 53 18122660251576053585
3004659 81 18186796946439747688
312425 54 13686297980952109589
3383291 50 17632859728945587495
397830 11 10735875106313216045
4066623 53 15936406707315209348
4169191 19 9511462221786620435
437795 139 18270398283051408224
439807 62 18408887334984674071
4408954 87 17916845960492729862
4440575 13 18261945238338081330
4756326 101 13685469967951937515
504579 68 16805599270655160051
513532 50 17676203602646513780
5364581 5 10519695710076279775
57035037 87 12541286376851745198
5718773 13 18412259510712465330
5719381 36 18130496535772325023
57527295 17 18265635229356992320
59682541 52 18040157309826143292
60123966 16 15864653725364303614
6438161 24 18341323427414785001
6697151 62 17845633907727920425
96874 4 18262795147619202834

> <PUBCHEM_SHAPE_MULTIPOLES>
609.81
23.69
3.68
1.97
33.45
1.71
-0.89
22.27
-5.03
-1.1
0.88
-3.31
-0.51
-1.96

> <PUBCHEM_SHAPE_SELFOVERLAP>
1340.373

> <PUBCHEM_SHAPE_VOLUME>
331.3

> <PUBCHEM_COORDINATE_TYPE>
2
5
10

$$$$
