38029325
  -OEChem-12032416143D

 64 65  0     1  0  0  0  0  0999 V2000
   -0.4469    3.3679    0.8608 O   0  0  0  0  0  0  0  0  0  0  0  0
    1.6312   -3.4663   -0.4610 O   0  0  0  0  0  0  0  0  0  0  0  0
    3.2358   -1.8239   -0.1028 N   0  0  0  0  0  0  0  0  0  0  0  0
   -0.7277    1.5046    2.2211 N   0  0  0  0  0  0  0  0  0  0  0  0
    2.3796   -3.0112    1.6877 N   0  0  0  0  0  0  0  0  0  0  0  0
   -5.9191   -1.6386   -2.2556 N   0  0  0  0  0  0  0  0  0  0  0  0
    1.5608    0.3174   -1.3884 C   0  0  1  0  0  0  0  0  0  0  0  0
    3.0656    0.0560   -1.6473 C   0  0  1  0  0  0  0  0  0  0  0  0
    1.3093    1.8147   -1.1538 C   0  0  0  0  0  0  0  0  0  0  0  0
    2.1124    2.3601    0.0421 C   0  0  2  0  0  0  0  0  0  0  0  0
    0.6895   -0.1797   -2.5461 C   0  0  0  0  0  0  0  0  0  0  0  0
    3.5604    1.9160   -0.0025 C   0  0  0  0  0  0  0  0  0  0  0  0
    3.9700    0.8931   -0.7735 C   0  0  0  0  0  0  0  0  0  0  0  0
    3.4088   -1.4269   -1.4649 C   0  0  0  0  0  0  0  0  0  0  0  0
    1.4586    1.9673    1.3716 C   0  0  0  0  0  0  0  0  0  0  0  0
   -0.7260   -0.4727   -2.0592 C   0  0  0  0  0  0  0  0  0  0  0  0
    0.6719    0.8444   -3.6764 C   0  0  0  0  0  0  0  0  0  0  0  0
    4.5363    2.7047    0.8257 C   0  0  0  0  0  0  0  0  0  0  0  0
    0.0058    2.3813    1.4350 C   0  0  0  0  0  0  0  0  0  0  0  0
    2.3486   -2.8272    0.3076 C   0  0  0  0  0  0  0  0  0  0  0  0
   -2.1445    1.6560    2.4604 C   0  0  0  0  0  0  0  0  0  0  0  0
   -2.9682    0.9368    1.4316 C   0  0  0  0  0  0  0  0  0  0  0  0
    1.5585   -3.9865    2.3656 C   0  0  0  0  0  0  0  0  0  0  0  0
   -3.8711    1.6472    0.6404 C   0  0  0  0  0  0  0  0  0  0  0  0
   -2.8306   -0.4414    1.2668 C   0  0  0  0  0  0  0  0  0  0  0  0
    0.1439   -3.4813    2.5605 C   0  0  0  0  0  0  0  0  0  0  0  0
   -4.6362    0.9793   -0.3156 C   0  0  0  0  0  0  0  0  0  0  0  0
   -3.5957   -1.1093    0.3108 C   0  0  0  0  0  0  0  0  0  0  0  0
   -4.4984   -0.3990   -0.4804 C   0  0  0  0  0  0  0  0  0  0  0  0
   -5.2824   -1.0830   -1.4600 C   0  0  0  0  0  0  0  0  0  0  0  0
    1.2596   -0.2160   -0.4783 H   0  0  0  0  0  0  0  0  0  0  0  0
    3.3109    0.3216   -2.6834 H   0  0  0  0  0  0  0  0  0  0  0  0
    0.2416    2.0248   -1.0580 H   0  0  0  0  0  0  0  0  0  0  0  0
    1.6525    2.3961   -2.0203 H   0  0  0  0  0  0  0  0  0  0  0  0
    2.0893    3.4558   -0.0418 H   0  0  0  0  0  0  0  0  0  0  0  0
    1.0855   -1.1188   -2.9461 H   0  0  0  0  0  0  0  0  0  0  0  0
    5.0301    0.6483   -0.8021 H   0  0  0  0  0  0  0  0  0  0  0  0
    4.4629   -1.6038   -1.7113 H   0  0  0  0  0  0  0  0  0  0  0  0
    2.8221   -2.0675   -2.1287 H   0  0  0  0  0  0  0  0  0  0  0  0
    1.9630    2.4631    2.2100 H   0  0  0  0  0  0  0  0  0  0  0  0
    1.5538    0.8873    1.5387 H   0  0  0  0  0  0  0  0  0  0  0  0
   -1.2247    0.4200   -1.6698 H   0  0  0  0  0  0  0  0  0  0  0  0
   -0.7167   -1.2306   -1.2686 H   0  0  0  0  0  0  0  0  0  0  0  0
   -1.3406   -0.8611   -2.8788 H   0  0  0  0  0  0  0  0  0  0  0  0
    0.0762    1.7333   -3.4434 H   0  0  0  0  0  0  0  0  0  0  0  0
    0.2022    0.3955   -4.5605 H   0  0  0  0  0  0  0  0  0  0  0  0
    1.6756    1.1524   -3.9837 H   0  0  0  0  0  0  0  0  0  0  0  0
    4.4912    3.7654    0.5584 H   0  0  0  0  0  0  0  0  0  0  0  0
    5.5686    2.3711    0.6757 H   0  0  0  0  0  0  0  0  0  0  0  0
    4.3097    2.6034    1.8913 H   0  0  0  0  0  0  0  0  0  0  0  0
    3.8326   -1.4047    0.6038 H   0  0  0  0  0  0  0  0  0  0  0  0
   -0.2634    0.7116    2.6541 H   0  0  0  0  0  0  0  0  0  0  0  0
   -2.3854    2.7249    2.4843 H   0  0  0  0  0  0  0  0  0  0  0  0
   -2.3604    1.2481    3.4542 H   0  0  0  0  0  0  0  0  0  0  0  0
    2.9948   -2.4259    2.2443 H   0  0  0  0  0  0  0  0  0  0  0  0
    1.5506   -4.9115    1.7795 H   0  0  0  0  0  0  0  0  0  0  0  0
    2.0258   -4.1938    3.3333 H   0  0  0  0  0  0  0  0  0  0  0  0
   -3.9882    2.7214    0.7567 H   0  0  0  0  0  0  0  0  0  0  0  0
   -2.1332   -1.0078    1.8783 H   0  0  0  0  0  0  0  0  0  0  0  0
    0.1366   -2.5496    3.1362 H   0  0  0  0  0  0  0  0  0  0  0  0
   -0.3440   -3.2808    1.6009 H   0  0  0  0  0  0  0  0  0  0  0  0
   -0.4554   -4.2218    3.0988 H   0  0  0  0  0  0  0  0  0  0  0  0
   -5.3354    1.5468   -0.9251 H   0  0  0  0  0  0  0  0  0  0  0  0
   -3.4764   -2.1838    0.1938 H   0  0  0  0  0  0  0  0  0  0  0  0
  1 19  2  0  0  0  0
  2 20  2  0  0  0  0
  3 14  1  0  0  0  0
  3 20  1  0  0  0  0
  3 51  1  0  0  0  0
  4 19  1  0  0  0  0
  4 21  1  0  0  0  0
  4 52  1  0  0  0  0
  5 20  1  0  0  0  0
  5 23  1  0  0  0  0
  5 55  1  0  0  0  0
  6 30  3  0  0  0  0
  7  8  1  0  0  0  0
  7  9  1  0  0  0  0
  7 11  1  0  0  0  0
  7 31  1  0  0  0  0
  8 13  1  0  0  0  0
  8 14  1  0  0  0  0
  8 32  1  0  0  0  0
  9 10  1  0  0  0  0
  9 33  1  0  0  0  0
  9 34  1  0  0  0  0
 10 12  1  0  0  0  0
 10 15  1  0  0  0  0
 10 35  1  0  0  0  0
 11 16  1  0  0  0  0
 11 17  1  0  0  0  0
 11 36  1  0  0  0  0
 12 13  2  0  0  0  0
 12 18  1  0  0  0  0
 13 37  1  0  0  0  0
 14 38  1  0  0  0  0
 14 39  1  0  0  0  0
 15 19  1  0  0  0  0
 15 40  1  0  0  0  0
 15 41  1  0  0  0  0
 16 42  1  0  0  0  0
 16 43  1  0  0  0  0
 16 44  1  0  0  0  0
 17 45  1  0  0  0  0
 17 46  1  0  0  0  0
 17 47  1  0  0  0  0
 18 48  1  0  0  0  0
 18 49  1  0  0  0  0
 18 50  1  0  0  0  0
 21 22  1  0  0  0  0
 21 53  1  0  0  0  0
 21 54  1  0  0  0  0
 22 24  2  0  0  0  0
 22 25  1  0  0  0  0
 23 26  1  0  0  0  0
 23 56  1  0  0  0  0
 23 57  1  0  0  0  0
 24 27  1  0  0  0  0
 24 58  1  0  0  0  0
 25 28  2  0  0  0  0
 25 59  1  0  0  0  0
 26 60  1  0  0  0  0
 26 61  1  0  0  0  0
 26 62  1  0  0  0  0
 27 29  2  0  0  0  0
 27 63  1  0  0  0  0
 28 29  1  0  0  0  0
 28 64  1  0  0  0  0
 29 30  1  0  0  0  0
M  END
> <PUBCHEM_COMPOUND_CID>
38029325

> <PUBCHEM_CONFORMER_RMSD>
1

> <PUBCHEM_CONFORMER_DIVERSEORDER>
1
72
28
50
45
37
55
118
104
111
43
62
48
19
147
53
32
114
157
66
23
82
44
121
158
3
54
79
151
84
139
60
142
138
102
24
156
85
145
91
64
57
86
163
87
155
71
144
98
129
15
21
152
161
127
39
25
26
162
18
78
35
134
68
120
30
38
128
130
17
153
88
136
40
73
6
2
119
141
99
160
76
59
154
115
51
11
101
106
77
81
117
67
70
112
63
105
159
9
36
143
52
13
100
74
41
110
107
97
124
150
4
137
148
96
75
113
31
7
149
65
140
83
108
94
5
126
69
80
109
116
132
56
58
135
61
123
10
20
49
34
131
103
14
33
125
12
16
90
8
146
122
42
27
89
93
92
47
95
22
46
29
133

> <PUBCHEM_MMFF94_PARTIAL_CHARGES>
32
1 -0.57
10 0.14
12 -0.28
13 -0.29
14 0.3
15 0.06
18 0.14
19 0.57
2 -0.57
20 0.69
21 0.44
22 -0.14
23 0.3
24 -0.15
25 -0.15
27 -0.15
28 -0.15
29 0.07
3 -0.73
30 0.48
37 0.15
4 -0.73
5 -0.73
51 0.37
52 0.37
55 0.37
58 0.15
59 0.15
6 -0.56
63 0.15
64 0.15
8 0.14

> <PUBCHEM_EFFECTIVE_ROTOR_COUNT>
11.8

> <PUBCHEM_PHARMACOPHORE_FEATURES>
9
1 1 acceptor
1 2 acceptor
1 3 donor
1 4 donor
1 5 donor
1 6 acceptor
3 11 16 17 hydrophobe
6 22 24 25 27 28 29 rings
6 7 8 9 10 12 13 rings

> <PUBCHEM_HEAVY_ATOM_COUNT>
30

> <PUBCHEM_ATOM_DEF_STEREO_COUNT>
3

> <PUBCHEM_ATOM_UDEF_STEREO_COUNT>
0

> <PUBCHEM_BOND_DEF_STEREO_COUNT>
0

> <PUBCHEM_BOND_UDEF_STEREO_COUNT>
0

> <PUBCHEM_ISOTOPIC_ATOM_COUNT>
0

> <PUBCHEM_COMPONENT_COUNT>
1

> <PUBCHEM_CACTVS_TAUTO_COUNT>
6

> <PUBCHEM_CONFORMER_ID>
0244480D00000001

> <PUBCHEM_MMFF94_ENERGY>
47.8113

> <PUBCHEM_FEATURE_SELFOVERLAP>
45.719

> <PUBCHEM_SHAPE_FINGERPRINT>
11370993 70 18187933953000083674
12156800 1 14472693040600681922
14114207 22 17170080786709252834
14674994 50 16599831978439172438
19026451 147 18342164558058301219
19315092 285 18264184990303724887
20511986 3 18131630067461291217
20764821 26 17329454128971154931
20775530 9 17319294207986857618
25222932 49 18129102402156458447
35225 105 17617399701556881686
46194498 28 16084228425664569893
463206 1 18337687320807539185
5081480 168 16734665252820147809
513532 50 16951107526862436231

> <PUBCHEM_SHAPE_MULTIPOLES>
585.72
9.4
4.43
3.16
10.81
4.16
-1.09
-0.28
-3.26
-3.88
3.69
0.61
0.55
-1.5

> <PUBCHEM_SHAPE_SELFOVERLAP>
1198.325

> <PUBCHEM_SHAPE_VOLUME>
334.8

> <PUBCHEM_COORDINATE_TYPE>
2
5
10

$$$$
