26743312
  -OEChem-12032416183D

 68 71  0     1  0  0  0  0  0999 V2000
    5.6376    0.9470   -1.4440 O   0  0  0  0  0  0  0  0  0  0  0  0
   -2.1421   -0.1597   -1.8950 O   0  0  0  0  0  0  0  0  0  0  0  0
    1.6932    3.2290    1.2775 N   0  0  0  0  0  0  0  0  0  0  0  0
    6.3076   -0.5382    0.2123 N   0  0  0  0  0  0  0  0  0  0  0  0
   -0.7576   -0.1079   -2.0018 N   0  0  0  0  0  0  0  0  0  0  0  0
    3.1836    1.4506   -0.5453 C   0  0  1  0  0  0  0  0  0  0  0  0
    1.6651    1.3016   -0.2879 C   0  0  2  0  0  0  0  0  0  0  0  0
    3.6015    2.9022   -0.2566 C   0  0  0  0  0  0  0  0  0  0  0  0
    1.2682    1.8404    1.0968 C   0  0  0  0  0  0  0  0  0  0  0  0
    4.0505    0.4654    0.2479 C   0  0  0  0  0  0  0  0  0  0  0  0
    3.1380    3.3801    1.1188 C   0  0  0  0  0  0  0  0  0  0  0  0
    1.1643   -0.1318   -0.4704 C   0  0  0  0  0  0  0  0  0  0  0  0
    5.3999    0.3191   -0.4091 C   0  0  0  0  0  0  0  0  0  0  0  0
   -0.3115   -0.1649   -0.7436 C   0  0  0  0  0  0  0  0  0  0  0  0
    7.6384   -0.7345   -0.3665 C   0  0  0  0  0  0  0  0  0  0  0  0
    6.0695   -1.2635    1.4666 C   0  0  0  0  0  0  0  0  0  0  0  0
    7.9257   -2.2177   -0.5833 C   0  0  0  0  0  0  0  0  0  0  0  0
    6.3280   -2.7578    1.2857 C   0  0  0  0  0  0  0  0  0  0  0  0
    7.7169   -3.0148    0.7031 C   0  0  0  0  0  0  0  0  0  0  0  0
   -1.3584   -0.2528    0.1903 C   0  0  0  0  0  0  0  0  0  0  0  0
   -2.4877   -0.2460   -0.5850 C   0  0  0  0  0  0  0  0  0  0  0  0
   -3.8951   -0.3079   -0.3166 C   0  0  0  0  0  0  0  0  0  0  0  0
   -8.0964   -0.4907    0.4854 C   0  0  0  0  0  0  0  0  0  0  0  0
   -6.6327   -0.4267    0.2059 C   0  0  0  0  0  0  0  0  0  0  0  0
   -4.3509   -0.3981    0.9986 C   0  0  0  0  0  0  0  0  0  0  0  0
   -4.8083   -0.2769   -1.3706 C   0  0  0  0  0  0  0  0  0  0  0  0
   -5.7197   -0.4576    1.2599 C   0  0  0  0  0  0  0  0  0  0  0  0
   -6.1771   -0.3364   -1.1094 C   0  0  0  0  0  0  0  0  0  0  0  0
   -8.4724   -1.8068    1.2343 C   0  0  0  0  0  0  0  0  0  0  0  0
   -8.5547    0.7049    1.3768 C   0  0  0  0  0  0  0  0  0  0  0  0
   -9.0231   -0.4497   -0.7748 C   0  0  0  0  0  0  0  0  0  0  0  0
    3.3241    1.2689   -1.6199 H   0  0  0  0  0  0  0  0  0  0  0  0
    1.1653    1.9369   -1.0362 H   0  0  0  0  0  0  0  0  0  0  0  0
    3.1597    3.5533   -1.0234 H   0  0  0  0  0  0  0  0  0  0  0  0
    4.6858    3.0337   -0.3366 H   0  0  0  0  0  0  0  0  0  0  0  0
    0.1813    1.8209    1.2178 H   0  0  0  0  0  0  0  0  0  0  0  0
    1.6881    1.2151    1.8945 H   0  0  0  0  0  0  0  0  0  0  0  0
    3.6015   -0.5320    0.2492 H   0  0  0  0  0  0  0  0  0  0  0  0
    4.1770    0.7886    1.2845 H   0  0  0  0  0  0  0  0  0  0  0  0
    3.6662    2.8543    1.9216 H   0  0  0  0  0  0  0  0  0  0  0  0
    3.3891    4.4414    1.2252 H   0  0  0  0  0  0  0  0  0  0  0  0
    1.3753   -0.7435    0.4154 H   0  0  0  0  0  0  0  0  0  0  0  0
    1.6809   -0.6075   -1.3143 H   0  0  0  0  0  0  0  0  0  0  0  0
    1.4209    3.5470    2.2072 H   0  0  0  0  0  0  0  0  0  0  0  0
    8.3651   -0.3007    0.3305 H   0  0  0  0  0  0  0  0  0  0  0  0
    7.7344   -0.1976   -1.3155 H   0  0  0  0  0  0  0  0  0  0  0  0
    5.0557   -1.1192    1.8431 H   0  0  0  0  0  0  0  0  0  0  0  0
    6.7542   -0.8464    2.2147 H   0  0  0  0  0  0  0  0  0  0  0  0
    8.9521   -2.3506   -0.9420 H   0  0  0  0  0  0  0  0  0  0  0  0
    7.2565   -2.6083   -1.3601 H   0  0  0  0  0  0  0  0  0  0  0  0
    5.5720   -3.1780    0.6107 H   0  0  0  0  0  0  0  0  0  0  0  0
    6.2270   -3.2726    2.2475 H   0  0  0  0  0  0  0  0  0  0  0  0
    7.8444   -4.0844    0.5031 H   0  0  0  0  0  0  0  0  0  0  0  0
    8.4802   -2.7307    1.4378 H   0  0  0  0  0  0  0  0  0  0  0  0
   -1.2912   -0.3148    1.2666 H   0  0  0  0  0  0  0  0  0  0  0  0
   -3.6637   -0.4239    1.8404 H   0  0  0  0  0  0  0  0  0  0  0  0
   -4.4917   -0.2069   -2.4082 H   0  0  0  0  0  0  0  0  0  0  0  0
   -6.0472   -0.5274    2.2932 H   0  0  0  0  0  0  0  0  0  0  0  0
   -6.8427   -0.3089   -1.9650 H   0  0  0  0  0  0  0  0  0  0  0  0
   -9.5519   -1.8685    1.4148 H   0  0  0  0  0  0  0  0  0  0  0  0
   -8.1784   -2.6856    0.6482 H   0  0  0  0  0  0  0  0  0  0  0  0
   -7.9775   -1.8789    2.2089 H   0  0  0  0  0  0  0  0  0  0  0  0
   -9.6352    0.6750    1.5593 H   0  0  0  0  0  0  0  0  0  0  0  0
   -8.0616    0.6988    2.3550 H   0  0  0  0  0  0  0  0  0  0  0  0
   -8.3211    1.6617    0.8948 H   0  0  0  0  0  0  0  0  0  0  0  0
  -10.0808   -0.5008   -0.4889 H   0  0  0  0  0  0  0  0  0  0  0  0
   -8.8894    0.4791   -1.3417 H   0  0  0  0  0  0  0  0  0  0  0  0
   -8.8307   -1.2974   -1.4427 H   0  0  0  0  0  0  0  0  0  0  0  0
  1 13  2  0  0  0  0
  2  5  1  0  0  0  0
  2 21  1  0  0  0  0
  3  9  1  0  0  0  0
  3 11  1  0  0  0  0
  3 44  1  0  0  0  0
  4 13  1  0  0  0  0
  4 15  1  0  0  0  0
  4 16  1  0  0  0  0
  5 14  2  0  0  0  0
  6  7  1  0  0  0  0
  6  8  1  0  0  0  0
  6 10  1  0  0  0  0
  6 32  1  0  0  0  0
  7  9  1  0  0  0  0
  7 12  1  0  0  0  0
  7 33  1  0  0  0  0
  8 11  1  0  0  0  0
  8 34  1  0  0  0  0
  8 35  1  0  0  0  0
  9 36  1  0  0  0  0
  9 37  1  0  0  0  0
 10 13  1  0  0  0  0
 10 38  1  0  0  0  0
 10 39  1  0  0  0  0
 11 40  1  0  0  0  0
 11 41  1  0  0  0  0
 12 14  1  0  0  0  0
 12 42  1  0  0  0  0
 12 43  1  0  0  0  0
 14 20  1  0  0  0  0
 15 17  1  0  0  0  0
 15 45  1  0  0  0  0
 15 46  1  0  0  0  0
 16 18  1  0  0  0  0
 16 47  1  0  0  0  0
 16 48  1  0  0  0  0
 17 19  1  0  0  0  0
 17 49  1  0  0  0  0
 17 50  1  0  0  0  0
 18 19  1  0  0  0  0
 18 51  1  0  0  0  0
 18 52  1  0  0  0  0
 19 53  1  0  0  0  0
 19 54  1  0  0  0  0
 20 21  2  0  0  0  0
 20 55  1  0  0  0  0
 21 22  1  0  0  0  0
 22 25  2  0  0  0  0
 22 26  1  0  0  0  0
 23 24  1  0  0  0  0
 23 29  1  0  0  0  0
 23 30  1  0  0  0  0
 23 31  1  0  0  0  0
 24 27  2  0  0  0  0
 24 28  1  0  0  0  0
 25 27  1  0  0  0  0
 25 56  1  0  0  0  0
 26 28  2  0  0  0  0
 26 57  1  0  0  0  0
 27 58  1  0  0  0  0
 28 59  1  0  0  0  0
 29 60  1  0  0  0  0
 29 61  1  0  0  0  0
 29 62  1  0  0  0  0
 30 63  1  0  0  0  0
 30 64  1  0  0  0  0
 30 65  1  0  0  0  0
 31 66  1  0  0  0  0
 31 67  1  0  0  0  0
 31 68  1  0  0  0  0
M  END
> <PUBCHEM_COMPOUND_CID>
26743312

> <PUBCHEM_CONFORMER_RMSD>
1

> <PUBCHEM_CONFORMER_DIVERSEORDER>
1
177
126
118
170
97
199
74
173
204
104
143
136
176
197
107
63
69
70
201
27
182
198
35
186
131
117
111
29
88
68
185
73
57
161
178
162
180
54
67
141
24
113
17
195
183
203
175
45
190
150
64
18
101
12
171
132
3
60
98
115
51
149
160
80
202
47
41
153
28
133
193
192
40
34
46
20
129
10
49
30
102
4
167
200
124
22
79
36
145
25
119
26
9
120
38
76
179
75
56
103
146
168
189
191
122
172
50
85
19
62
95
78
134
142
154
94
92
72
86
43
93
139
135
125
157
99
37
116
155
7
89
14
44
108
6
87
77
181
96
169
144
71
8
55
23
121
166
188
140
164
114
83
130
90
205
163
196
207
123
16
165
138
151
21
109
42
128
59
187
106
137
112
100
31
84
33
184
53
66
152
32
52
82
2
194
159
15
61
11
127
91
147
58
206
174
110
158
48
105
65
5
148
156
13
39
81

> <PUBCHEM_MMFF94_PARTIAL_CHARGES>
28
1 -0.57
10 0.06
11 0.27
12 0.18
13 0.57
14 0.11
15 0.3
16 0.3
2 -0.02
20 -0.15
21 0.09
22 0.05
23 0.14
24 -0.14
25 -0.15
26 -0.15
27 -0.15
28 -0.15
3 -0.9
4 -0.66
44 0.36
5 -0.41
55 0.15
56 0.15
57 0.15
58 0.15
59 0.15
9 0.27

> <PUBCHEM_EFFECTIVE_ROTOR_COUNT>
9.4

> <PUBCHEM_PHARMACOPHORE_FEATURES>
9
1 1 acceptor
1 3 cation
1 3 donor
1 5 acceptor
4 23 29 30 31 hydrophobe
5 2 5 14 20 21 rings
6 22 24 25 26 27 28 rings
6 3 6 7 8 9 11 rings
6 4 15 16 17 18 19 rings

> <PUBCHEM_HEAVY_ATOM_COUNT>
31

> <PUBCHEM_ATOM_DEF_STEREO_COUNT>
2

> <PUBCHEM_ATOM_UDEF_STEREO_COUNT>
0

> <PUBCHEM_BOND_DEF_STEREO_COUNT>
0

> <PUBCHEM_BOND_UDEF_STEREO_COUNT>
0

> <PUBCHEM_ISOTOPIC_ATOM_COUNT>
0

> <PUBCHEM_COMPONENT_COUNT>
1

> <PUBCHEM_CACTVS_TAUTO_COUNT>
1

> <PUBCHEM_CONFORMER_ID>
0198121000000001

> <PUBCHEM_MMFF94_ENERGY>
64.2324

> <PUBCHEM_FEATURE_SELFOVERLAP>
45.671

> <PUBCHEM_SHAPE_FINGERPRINT>
10162869 55 17632570574925209717
10258705 36 17822301183969664971
10533779 47 18334024891274508091
11315181 36 8070028870804773551
11409948 35 18040991787844724243
11456790 92 18131074835558209497
11638347 137 18334018324422414723
12013929 2 18260264115344391519
12107183 9 18060419140004059836
12144603 126 18059576927863365028
12373685 5 12175616239906119997
12522641 24 18334010605453327082
12592606 108 18412262839349380707
12838862 33 15913326854700181585
13150687 139 10953741046498125888
13540713 5 17343768559468714844
13673619 4 18040994021258873044
13782708 43 18186794798951051958
14347424 109 18131631222912930720
1454969 45 11241970382180814551
14675020 138 15985108509346418652
15131766 46 17838050760440715877
15183329 4 16486427584957510797
15301273 46 17312819394822282837
15352257 5 17675926507861212290
15419008 145 18130792205410045241
15510794 2 17530682121886552746
1577012 14 17489024989211861101
15840311 113 16845569833891819114
16728300 4 18195799679350831558
17134984 74 17312818244277956882
1754911 235 7925911486771891498
19301679 30 18129104416675422878
20105231 36 15646777790985655961
20771845 65 18411698773949667588
21130935 74 18263927812231061011
21150785 3 8070027762001662303
21344244 181 17240203227323617674
21360443 126 8286192851502569256
21365058 113 17603589634107729572
21781055 127 16342880813953345520
21792934 111 15482673454992686650
23559900 14 17968094273890753469
23569943 247 18337097986981723267
3178227 256 18410854365339172038
34797466 226 16298387998173074484
4258327 124 9294995890772527201
437795 160 15554153857825632639
439807 62 17531247232562406874
4403749 210 10375284757061313436
45377200 153 16515980271621255523
46194498 28 17022901260217284774
504579 68 12684812212617525415
5104073 3 17702660119483155971
54039377 194 18337674114775289678
58260988 647 18040435448103752370
59520757 100 18050564050056093904
6057620 51 7853575708387497229
6058803 2 17270863276109297252
6081469 158 18187363234258205301
6201320 215 18198625442116211889
9962374 69 18341603858609305174

> <PUBCHEM_SHAPE_MULTIPOLES>
611.28
29.98
2.79
1.53
23.69
1.26
0.11
-20
-5.27
-7.83
-1.37
0.85
0.01
-0.52

> <PUBCHEM_SHAPE_SELFOVERLAP>
1286.852

> <PUBCHEM_SHAPE_VOLUME>
342.7

> <PUBCHEM_COORDINATE_TYPE>
2
5
10

$$$$
