40779449
  -OEChem-12032416163D

 61 65  0     1  0  0  0  0  0999 V2000
   -5.6457    1.9769    0.9405 O   0  0  0  0  0  0  0  0  0  0  0  0
   -5.5725    4.4284   -0.1697 O   0  0  0  0  0  0  0  0  0  0  0  0
   -3.5808   -2.1272    0.6816 N   0  0  2  0  0  0  0  0  0  0  0  0
    1.0168   -3.3257    0.4115 N   0  0  0  0  0  0  0  0  0  0  0  0
   -3.3730    1.6248    0.5831 N   0  0  0  0  0  0  0  0  0  0  0  0
    2.2587   -2.8220    0.5124 N   0  0  0  0  0  0  0  0  0  0  0  0
   -2.1222   -2.1174   -1.4760 C   0  0  2  0  0  0  0  0  0  0  0  0
   -1.3599   -2.8011   -0.3073 C   0  0  2  0  0  0  0  0  0  0  0  0
   -3.5439   -0.7598    0.0993 C   0  0  2  0  0  0  0  0  0  0  0  0
   -2.5227   -0.6874   -1.0564 C   0  0  0  0  0  0  0  0  0  0  0  0
   -3.4293   -2.9130   -1.6806 C   0  0  0  0  0  0  0  0  0  0  0  0
   -2.2027   -2.5890    0.9827 C   0  0  0  0  0  0  0  0  0  0  0  0
   -4.1625   -3.0378   -0.3336 C   0  0  0  0  0  0  0  0  0  0  0  0
    0.1068   -2.4495   -0.1030 C   0  0  0  0  0  0  0  0  0  0  0  0
   -3.2869    0.3168    1.1557 C   0  0  0  0  0  0  0  0  0  0  0  0
    0.8016   -1.2920   -0.3559 C   0  0  0  0  0  0  0  0  0  0  0  0
    2.1210   -1.5795    0.0421 C   0  0  0  0  0  0  0  0  0  0  0  0
    0.7691   -4.6833    0.8386 C   0  0  0  0  0  0  0  0  0  0  0  0
   -4.5566    2.3582    0.5202 C   0  0  0  0  0  0  0  0  0  0  0  0
    3.2514   -0.6898   -0.0168 C   0  0  0  0  0  0  0  0  0  0  0  0
   -4.3586    3.7084   -0.1349 C   0  0  0  0  0  0  0  0  0  0  0  0
    3.0627    0.6866    0.1118 C   0  0  0  0  0  0  0  0  0  0  0  0
    4.5317   -1.2033   -0.2014 C   0  0  0  0  0  0  0  0  0  0  0  0
    4.1549    1.5677    0.0571 C   0  0  0  0  0  0  0  0  0  0  0  0
    5.6282   -0.3426   -0.2581 C   0  0  0  0  0  0  0  0  0  0  0  0
    5.4568    1.0455   -0.1306 C   0  0  0  0  0  0  0  0  0  0  0  0
    3.9836    2.9558    0.1844 C   0  0  0  0  0  0  0  0  0  0  0  0
    6.5490    1.9266   -0.1854 C   0  0  0  0  0  0  0  0  0  0  0  0
   -5.4155    5.7052   -0.7820 C   0  0  0  0  0  0  0  0  0  0  0  0
    5.0801    3.8166    0.1276 C   0  0  0  0  0  0  0  0  0  0  0  0
    6.3603    3.3031   -0.0570 C   0  0  0  0  0  0  0  0  0  0  0  0
   -1.5248   -2.1025   -2.3937 H   0  0  0  0  0  0  0  0  0  0  0  0
   -1.3799   -3.8767   -0.5383 H   0  0  0  0  0  0  0  0  0  0  0  0
   -4.5405   -0.5495   -0.3169 H   0  0  0  0  0  0  0  0  0  0  0  0
   -1.6483   -0.0973   -0.7792 H   0  0  0  0  0  0  0  0  0  0  0  0
   -2.9841   -0.1765   -1.9112 H   0  0  0  0  0  0  0  0  0  0  0  0
   -3.2124   -3.9104   -2.0804 H   0  0  0  0  0  0  0  0  0  0  0  0
   -4.0661   -2.4017   -2.4126 H   0  0  0  0  0  0  0  0  0  0  0  0
   -2.2620   -3.5375    1.5327 H   0  0  0  0  0  0  0  0  0  0  0  0
   -1.7119   -1.8964    1.6761 H   0  0  0  0  0  0  0  0  0  0  0  0
   -5.2286   -2.8173   -0.4679 H   0  0  0  0  0  0  0  0  0  0  0  0
   -4.1202   -4.0732    0.0280 H   0  0  0  0  0  0  0  0  0  0  0  0
   -2.2880    0.2307    1.5949 H   0  0  0  0  0  0  0  0  0  0  0  0
   -4.0183    0.2336    1.9679 H   0  0  0  0  0  0  0  0  0  0  0  0
    0.4256   -0.3759   -0.7832 H   0  0  0  0  0  0  0  0  0  0  0  0
   -2.5241    2.0327    0.2018 H   0  0  0  0  0  0  0  0  0  0  0  0
    0.5059   -5.2790   -0.0387 H   0  0  0  0  0  0  0  0  0  0  0  0
    1.6728   -5.0894    1.3016 H   0  0  0  0  0  0  0  0  0  0  0  0
   -0.0426   -4.6807    1.5692 H   0  0  0  0  0  0  0  0  0  0  0  0
   -3.6097    4.2659    0.4396 H   0  0  0  0  0  0  0  0  0  0  0  0
   -3.9900    3.5470   -1.1546 H   0  0  0  0  0  0  0  0  0  0  0  0
    2.0658    1.0962    0.2678 H   0  0  0  0  0  0  0  0  0  0  0  0
    4.7094   -2.2703   -0.3132 H   0  0  0  0  0  0  0  0  0  0  0  0
    6.6199   -0.7656   -0.4049 H   0  0  0  0  0  0  0  0  0  0  0  0
    2.9921    3.3799    0.3293 H   0  0  0  0  0  0  0  0  0  0  0  0
    7.5587    1.5474   -0.3290 H   0  0  0  0  0  0  0  0  0  0  0  0
   -6.3854    6.2095   -0.7781 H   0  0  0  0  0  0  0  0  0  0  0  0
   -5.0824    5.5933   -1.8183 H   0  0  0  0  0  0  0  0  0  0  0  0
   -4.7014    6.3136   -0.2188 H   0  0  0  0  0  0  0  0  0  0  0  0
    4.9338    4.8882    0.2275 H   0  0  0  0  0  0  0  0  0  0  0  0
    7.2135    3.9737   -0.1012 H   0  0  0  0  0  0  0  0  0  0  0  0
  1 19  2  0  0  0  0
  2 21  1  0  0  0  0
  2 29  1  0  0  0  0
  3  9  1  0  0  0  0
  3 12  1  0  0  0  0
  3 13  1  0  0  0  0
  4  6  1  0  0  0  0
  4 14  1  0  0  0  0
  4 18  1  0  0  0  0
  5 15  1  0  0  0  0
  5 19  1  0  0  0  0
  5 46  1  0  0  0  0
  6 17  2  0  0  0  0
  7  8  1  0  0  0  0
  7 10  1  0  0  0  0
  7 11  1  0  0  0  0
  7 32  1  0  0  0  0
  8 12  1  0  0  0  0
  8 14  1  0  0  0  0
  8 33  1  0  0  0  0
  9 10  1  0  0  0  0
  9 15  1  0  0  0  0
  9 34  1  0  0  0  0
 10 35  1  0  0  0  0
 10 36  1  0  0  0  0
 11 13  1  0  0  0  0
 11 37  1  0  0  0  0
 11 38  1  0  0  0  0
 12 39  1  0  0  0  0
 12 40  1  0  0  0  0
 13 41  1  0  0  0  0
 13 42  1  0  0  0  0
 14 16  2  0  0  0  0
 15 43  1  0  0  0  0
 15 44  1  0  0  0  0
 16 17  1  0  0  0  0
 16 45  1  0  0  0  0
 17 20  1  0  0  0  0
 18 47  1  0  0  0  0
 18 48  1  0  0  0  0
 18 49  1  0  0  0  0
 19 21  1  0  0  0  0
 20 22  2  0  0  0  0
 20 23  1  0  0  0  0
 21 50  1  0  0  0  0
 21 51  1  0  0  0  0
 22 24  1  0  0  0  0
 22 52  1  0  0  0  0
 23 25  2  0  0  0  0
 23 53  1  0  0  0  0
 24 26  1  0  0  0  0
 24 27  2  0  0  0  0
 25 26  1  0  0  0  0
 25 54  1  0  0  0  0
 26 28  2  0  0  0  0
 27 30  1  0  0  0  0
 27 55  1  0  0  0  0
 28 31  1  0  0  0  0
 28 56  1  0  0  0  0
 29 57  1  0  0  0  0
 29 58  1  0  0  0  0
 29 59  1  0  0  0  0
 30 31  2  0  0  0  0
 30 60  1  0  0  0  0
 31 61  1  0  0  0  0
M  END
> <PUBCHEM_COMPOUND_CID>
40779449

> <PUBCHEM_CONFORMER_RMSD>
1

> <PUBCHEM_CONFORMER_DIVERSEORDER>
1
5
29
21
7
39
32
31
36
13
38
4
3
20
30
27
9
23
15
22
10
24
42
25
18
28
8
41
33
6
40
26
11
14
12
37
17
2
34
35
19
16

> <PUBCHEM_MMFF94_PARTIAL_CHARGES>
35
1 -0.57
12 0.27
13 0.27
14 -0.33
15 0.3
16 -0.15
17 0.23
18 0.26
19 0.57
2 -0.56
20 0.05
21 0.34
22 -0.15
23 -0.15
25 -0.15
27 -0.15
28 -0.15
29 0.28
3 -0.81
30 -0.15
31 -0.15
4 0.31
45 0.15
46 0.37
5 -0.73
52 0.15
53 0.15
54 0.15
55 0.15
56 0.15
6 -0.71
60 0.15
61 0.15
8 0.18
9 0.27

> <PUBCHEM_EFFECTIVE_ROTOR_COUNT>
8.2

> <PUBCHEM_PHARMACOPHORE_FEATURES>
9
1 1 acceptor
1 2 acceptor
1 3 cation
1 5 donor
1 6 acceptor
5 4 6 14 16 17 rings
6 20 22 23 24 25 26 rings
6 24 26 27 28 30 31 rings
8 3 7 8 9 10 11 12 13 rings

> <PUBCHEM_HEAVY_ATOM_COUNT>
31

> <PUBCHEM_ATOM_DEF_STEREO_COUNT>
3

> <PUBCHEM_ATOM_UDEF_STEREO_COUNT>
0

> <PUBCHEM_BOND_DEF_STEREO_COUNT>
0

> <PUBCHEM_BOND_UDEF_STEREO_COUNT>
0

> <PUBCHEM_ISOTOPIC_ATOM_COUNT>
0

> <PUBCHEM_COMPONENT_COUNT>
1

> <PUBCHEM_CACTVS_TAUTO_COUNT>
2

> <PUBCHEM_CONFORMER_ID>
026E3EB900000001

> <PUBCHEM_MMFF94_ENERGY>
79.5929

> <PUBCHEM_FEATURE_SELFOVERLAP>
45.705

> <PUBCHEM_SHAPE_FINGERPRINT>
10670039 82 18270116967341473384
10675989 125 17907018370258672969
10864689 126 18267030445045342380
10871710 139 18269835470884872151
11101153 10 18196653127553311791
12107183 9 18265608793716767010
12925494 130 18336826394972303657
13617811 41 17979059811250920401
14117953 113 17908137673094832676
14223995 32 18341321228904025304
14251764 75 18198635349824632881
14429114 114 18268989959191098360
14790565 3 18410014372999672026
15064981 113 17775564269509493238
15183329 4 18196936789596654318
15289351 153 18268138946746498576
15320467 1 17906454677218023232
15400415 2 18410013195609869216
15419008 145 18263348327033670352
15483637 11 18410570716882715116
15575132 122 18272372031161751871
15705408 1 17049317215868801759
19053607 189 18267288851336241353
19304152 47 18261689154684901513
21033648 29 17168965928942554526
21223535 225 18341895208422509836
22122407 14 18335985281150629971
23516275 100 17335325525327700576
23569914 2 17342615060339964104
2838139 119 18338797806435575447
312425 54 11819812147460156182
3388396 114 17693368254297362581
3552219 110 17701554024668282091
4144715 1 18263091058302839450
5081480 168 15697720431958291602
5104073 3 18113894983718180618
6036956 94 18191308376083402677
6058803 2 18267282280189570519
636775 72 17981886651842348984
6608658 132 17912359033120345934
7288768 16 18040439892999804219

> <PUBCHEM_SHAPE_MULTIPOLES>
606.3
16.11
7.45
1.01
11.62
7.18
-0.16
21.01
-0.52
-9.62
-0.28
-1.12
-0.46
-0.47

> <PUBCHEM_SHAPE_SELFOVERLAP>
1318.528

> <PUBCHEM_SHAPE_VOLUME>
328.8

> <PUBCHEM_COORDINATE_TYPE>
2
5
10

$$$$
