11884081
  -OEChem-12032416153D

 51 53  0     1  0  0  0  0  0999 V2000
    5.4842   -1.3857   -0.5019 S   0  0  0  0  0  0  0  0  0  0  0  0
    1.2808    0.1584   -1.1620 O   0  0  0  0  0  0  0  0  0  0  0  0
    2.3729    2.4136    0.6221 O   0  0  0  0  0  0  0  0  0  0  0  0
   -0.9770    1.4754   -0.2340 O   0  0  0  0  0  0  0  0  0  0  0  0
    5.7584   -0.7871   -1.7936 O   0  0  0  0  0  0  0  0  0  0  0  0
    5.5727   -2.8213   -0.3158 O   0  0  0  0  0  0  0  0  0  0  0  0
   -2.0255    0.2838    1.4125 O   0  0  0  0  0  0  0  0  0  0  0  0
   -8.2011   -1.3183    0.0544 O   0  0  0  0  0  0  0  0  0  0  0  0
    3.9666   -0.8675    0.0699 N   0  0  0  0  0  0  0  0  0  0  0  0
   -3.1195    0.8587   -0.5758 N   0  0  0  0  0  0  0  0  0  0  0  0
    2.4878    0.9780    0.7094 C   0  0  1  0  0  0  0  0  0  0  0  0
    1.1633    0.4018    0.2495 C   0  0  1  0  0  0  0  0  0  0  0  0
    3.4775    0.4783   -0.3135 C   0  0  2  0  0  0  0  0  0  0  0  0
    0.1969    1.5236    0.5451 C   0  0  1  0  0  0  0  0  0  0  0  0
    2.6387    0.3790   -1.5729 C   0  0  0  0  0  0  0  0  0  0  0  0
    1.0299    2.7488    0.2439 C   0  0  0  0  0  0  0  0  0  0  0  0
    6.5624   -0.6282    0.6921 C   0  0  0  0  0  0  0  0  0  0  0  0
   -2.0589    0.8130    0.3081 C   0  0  0  0  0  0  0  0  0  0  0  0
    8.0200   -0.9444    0.4009 C   0  0  0  0  0  0  0  0  0  0  0  0
    8.9421   -0.3146    1.4313 C   0  0  0  0  0  0  0  0  0  0  0  0
   -4.4108    0.3070   -0.4151 C   0  0  0  0  0  0  0  0  0  0  0  0
   -5.3627    0.4540   -1.4242 C   0  0  0  0  0  0  0  0  0  0  0  0
   -4.7331   -0.3857    0.7520 C   0  0  0  0  0  0  0  0  0  0  0  0
   -6.6366   -0.0916   -1.2662 C   0  0  0  0  0  0  0  0  0  0  0  0
   -6.0070   -0.9312    0.9102 C   0  0  0  0  0  0  0  0  0  0  0  0
   -6.9588   -0.7841   -0.0989 C   0  0  0  0  0  0  0  0  0  0  0  0
   -8.4632   -2.0137    1.2725 C   0  0  0  0  0  0  0  0  0  0  0  0
    2.7329    0.7290    1.7468 H   0  0  0  0  0  0  0  0  0  0  0  0
    0.8972   -0.5450    0.7284 H   0  0  0  0  0  0  0  0  0  0  0  0
    4.3211    1.1622   -0.4490 H   0  0  0  0  0  0  0  0  0  0  0  0
   -0.0271    1.5385    1.6207 H   0  0  0  0  0  0  0  0  0  0  0  0
    2.9411   -0.4238   -2.2518 H   0  0  0  0  0  0  0  0  0  0  0  0
    2.6577    1.3230   -2.1283 H   0  0  0  0  0  0  0  0  0  0  0  0
    0.6980    3.6268    0.8063 H   0  0  0  0  0  0  0  0  0  0  0  0
    1.0162    3.0103   -0.8201 H   0  0  0  0  0  0  0  0  0  0  0  0
    3.5958   -1.2708    0.9390 H   0  0  0  0  0  0  0  0  0  0  0  0
    6.3925    0.4523    0.6560 H   0  0  0  0  0  0  0  0  0  0  0  0
    6.2735   -1.0049    1.6787 H   0  0  0  0  0  0  0  0  0  0  0  0
    8.2927   -0.5809   -0.5968 H   0  0  0  0  0  0  0  0  0  0  0  0
    8.1768   -2.0293    0.3941 H   0  0  0  0  0  0  0  0  0  0  0  0
    8.8371    0.7751    1.4376 H   0  0  0  0  0  0  0  0  0  0  0  0
    8.7202   -0.6874    2.4364 H   0  0  0  0  0  0  0  0  0  0  0  0
    9.9855   -0.5538    1.2031 H   0  0  0  0  0  0  0  0  0  0  0  0
   -2.9542    1.3492   -1.4513 H   0  0  0  0  0  0  0  0  0  0  0  0
   -5.1244    0.9910   -2.3387 H   0  0  0  0  0  0  0  0  0  0  0  0
   -4.0479   -0.5392    1.5742 H   0  0  0  0  0  0  0  0  0  0  0  0
   -7.3738    0.0256   -2.0559 H   0  0  0  0  0  0  0  0  0  0  0  0
   -6.1912   -1.4574    1.8408 H   0  0  0  0  0  0  0  0  0  0  0  0
   -7.8245   -2.8974    1.3768 H   0  0  0  0  0  0  0  0  0  0  0  0
   -8.3951   -1.3474    2.1391 H   0  0  0  0  0  0  0  0  0  0  0  0
   -9.4973   -2.3708    1.2246 H   0  0  0  0  0  0  0  0  0  0  0  0
  1  5  2  0  0  0  0
  1  6  2  0  0  0  0
  1  9  1  0  0  0  0
  1 17  1  0  0  0  0
  2 12  1  0  0  0  0
  2 15  1  0  0  0  0
  3 11  1  0  0  0  0
  3 16  1  0  0  0  0
  4 14  1  0  0  0  0
  4 18  1  0  0  0  0
  7 18  2  0  0  0  0
  8 26  1  0  0  0  0
  8 27  1  0  0  0  0
  9 13  1  0  0  0  0
  9 36  1  0  0  0  0
 10 18  1  0  0  0  0
 10 21  1  0  0  0  0
 10 44  1  0  0  0  0
 11 12  1  0  0  0  0
 11 13  1  0  0  0  0
 11 28  1  0  0  0  0
 12 14  1  0  0  0  0
 12 29  1  0  0  0  0
 13 15  1  0  0  0  0
 13 30  1  0  0  0  0
 14 16  1  0  0  0  0
 14 31  1  0  0  0  0
 15 32  1  0  0  0  0
 15 33  1  0  0  0  0
 16 34  1  0  0  0  0
 16 35  1  0  0  0  0
 17 19  1  0  0  0  0
 17 37  1  0  0  0  0
 17 38  1  0  0  0  0
 19 20  1  0  0  0  0
 19 39  1  0  0  0  0
 19 40  1  0  0  0  0
 20 41  1  0  0  0  0
 20 42  1  0  0  0  0
 20 43  1  0  0  0  0
 21 22  2  0  0  0  0
 21 23  1  0  0  0  0
 22 24  1  0  0  0  0
 22 45  1  0  0  0  0
 23 25  2  0  0  0  0
 23 46  1  0  0  0  0
 24 26  2  0  0  0  0
 24 47  1  0  0  0  0
 25 26  1  0  0  0  0
 25 48  1  0  0  0  0
 27 49  1  0  0  0  0
 27 50  1  0  0  0  0
 27 51  1  0  0  0  0
M  END
> <PUBCHEM_COMPOUND_CID>
11884081

> <PUBCHEM_CONFORMER_RMSD>
1

> <PUBCHEM_CONFORMER_DIVERSEORDER>
1
38
40
76
85
60
84
95
86
31
57
47
81
46
56
15
32
92
90
8
13
12
63
45
69
48
78
79
33
30
50
9
64
29
14
55
91
17
62
51
20
3
77
26
88
58
28
61
5
10
44
43
16
75
83
74
25
59
6
68
54
23
41
66
2
39
71
37
53
73
87
24
34
70
72
4
94
52
67
27
19
36
93
42
18
65
11
49
21
35
89
80
7
82
22

> <PUBCHEM_MMFF94_PARTIAL_CHARGES>
31
1 1.33
10 -0.55
11 0.28
12 0.28
13 0.36
14 0.28
15 0.28
16 0.28
17 0.11
18 0.78
2 -0.56
21 0.12
22 -0.15
23 -0.15
24 -0.15
25 -0.15
26 0.08
27 0.28
3 -0.56
36 0.42
4 -0.43
44 0.37
45 0.15
46 0.15
47 0.15
48 0.15
5 -0.65
6 -0.65
7 -0.57
8 -0.36
9 -0.91

> <PUBCHEM_EFFECTIVE_ROTOR_COUNT>
10.2

> <PUBCHEM_PHARMACOPHORE_FEATURES>
12
1 10 donor
1 2 acceptor
1 20 hydrophobe
1 3 acceptor
1 5 acceptor
1 6 acceptor
1 7 acceptor
1 8 acceptor
1 9 donor
5 2 11 12 13 15 rings
5 3 11 12 14 16 rings
6 21 22 23 24 25 26 rings

> <PUBCHEM_HEAVY_ATOM_COUNT>
27

> <PUBCHEM_ATOM_DEF_STEREO_COUNT>
4

> <PUBCHEM_ATOM_UDEF_STEREO_COUNT>
0

> <PUBCHEM_BOND_DEF_STEREO_COUNT>
0

> <PUBCHEM_BOND_UDEF_STEREO_COUNT>
0

> <PUBCHEM_ISOTOPIC_ATOM_COUNT>
0

> <PUBCHEM_COMPONENT_COUNT>
1

> <PUBCHEM_CACTVS_TAUTO_COUNT>
2

> <PUBCHEM_CONFORMER_ID>
00B5563100000001

> <PUBCHEM_MMFF94_ENERGY>
70.9606

> <PUBCHEM_FEATURE_SELFOVERLAP>
61.628

> <PUBCHEM_SHAPE_FINGERPRINT>
10 15 12247679370414535927
106641 1 17489301997754360634
10669705 176 12612760116200968921
10670039 82 16081361935048980261
10674148 151 18259984856502682425
10753850 27 18342740706392793353
11135609 99 18339360867826408238
12516196 113 18272650121994117160
12616971 3 17418092148672485669
12623949 98 17202495386229435446
13150687 139 12973884780585427360
13177829 20 15841546384251563370
13533116 47 17917428765097902017
13668630 136 18334296448644217255
13673619 4 18334576850011174293
13685833 64 18413952780294445816
14251764 18 17275382114696844828
14849402 71 15625646324071310290
15183329 4 16008746892261890032
15301273 46 12535633782164771600
15350500 55 10447938252463406115
15510794 2 18335415799316387341
15706992 2 13614238235351883074
15728490 51 17632286900682922870
17134984 74 17821729425338401698
18335252 114 11963391843350828382
190975 80 18060695087959208082
20028762 73 17632577145271033863
2026 5 18333731291236569723
21033650 10 16660639593246463893
21130935 74 18129103312705453322
21150785 3 16008749117545527275
21267235 1 18343305859527358964
21585482 111 9366804987221351963
22224240 67 16702295759437177102
23522609 53 18055107386726064393
23524908 199 12685080468096031618
23559900 14 17749676297839607933
24771293 8 11671788165820298219
2838139 119 13912327854485541430
3004659 81 17603864511592218161
3178227 256 18202005442841269231
3383291 50 18411983567897076283
34797466 226 17531251724955572493
3633792 109 12468648206050153958
3711267 37 10447642548023426970
4461854 278 17489591173075489542
465052 167 18272373074427049556
504579 68 14706926272401488563
5104073 3 14691745207407564087
5718773 13 18411137995978099523
5758199 1 15051729794371916742
59682541 35 18130497596928972346
59682541 52 15430034344998768802
6126387 218 17632010863266800913
636775 72 11383568776433086011
6438161 24 18334575750045573331
9689198 14 11455880382882754270
9953998 17 15267339630916975463
9962374 69 18201428242412946879

> <PUBCHEM_SHAPE_MULTIPOLES>
508.45
26.81
2.05
1.34
4.29
0.23
0.25
-19.8
-3.95
-0.81
-0.33
-0.13
-0.11
1.68

> <PUBCHEM_SHAPE_SELFOVERLAP>
1052.019

> <PUBCHEM_SHAPE_VOLUME>
292.8

> <PUBCHEM_COORDINATE_TYPE>
2
5
10

$$$$
