11865998
  -OEChem-12032416153D

 43 46  0     1  0  0  0  0  0999 V2000
    6.0938   -0.5398    2.5213 Cl  0  0  0  0  0  0  0  0  0  0  0  0
   -6.1958   -2.1214   -0.1773 O   0  0  0  0  0  0  0  0  0  0  0  0
   -4.5190    2.1377    0.1105 O   0  0  0  0  0  0  0  0  0  0  0  0
   -1.2853   -1.7689    1.5691 O   0  0  0  0  0  0  0  0  0  0  0  0
    2.9037   -0.0881   -2.3908 O   0  0  0  0  0  0  0  0  0  0  0  0
   -2.9504   -0.7591    0.3467 N   0  0  0  0  0  0  0  0  0  0  0  0
   -2.2470    2.0996    0.2858 N   0  0  0  0  0  0  0  0  0  0  0  0
   -3.4018    0.1560   -0.6813 C   0  0  1  0  0  0  0  0  0  0  0  0
   -4.7605   -0.3945   -1.1094 C   0  0  0  0  0  0  0  0  0  0  0  0
   -5.2739   -1.1000    0.1449 C   0  0  2  0  0  0  0  0  0  0  0  0
   -4.0050   -1.6783    0.7497 C   0  0  0  0  0  0  0  0  0  0  0  0
   -3.4598    1.5241   -0.0324 C   0  0  0  0  0  0  0  0  0  0  0  0
   -1.6577   -0.8753    0.8090 C   0  0  0  0  0  0  0  0  0  0  0  0
   -0.6696    0.1517    0.3870 C   0  0  0  0  0  0  0  0  0  0  0  0
   -0.9600    1.5195    0.2443 C   0  0  0  0  0  0  0  0  0  0  0  0
    0.6650   -0.2848    0.2984 C   0  0  0  0  0  0  0  0  0  0  0  0
    0.1040    2.4244    0.0817 C   0  0  0  0  0  0  0  0  0  0  0  0
    1.7022    0.6229    0.0896 C   0  0  0  0  0  0  0  0  0  0  0  0
    1.4230    1.9799   -0.0062 C   0  0  0  0  0  0  0  0  0  0  0  0
    3.0681    0.1553   -0.0047 C   0  0  0  0  0  0  0  0  0  0  0  0
    3.6264   -0.1850   -1.2383 C   0  0  0  0  0  0  0  0  0  0  0  0
    3.8330    0.0450    1.1579 C   0  0  0  0  0  0  0  0  0  0  0  0
    4.9450   -0.6340   -1.3090 C   0  0  0  0  0  0  0  0  0  0  0  0
    5.1518   -0.4041    1.0873 C   0  0  0  0  0  0  0  0  0  0  0  0
    5.7077   -0.7436   -0.1463 C   0  0  0  0  0  0  0  0  0  0  0  0
    2.1621   -1.2391   -2.7876 C   0  0  0  0  0  0  0  0  0  0  0  0
   -2.7038    0.1807   -1.5256 H   0  0  0  0  0  0  0  0  0  0  0  0
   -5.4602    0.3649   -1.4721 H   0  0  0  0  0  0  0  0  0  0  0  0
   -4.6350   -1.1249   -1.9194 H   0  0  0  0  0  0  0  0  0  0  0  0
   -5.7460   -0.3815    0.8246 H   0  0  0  0  0  0  0  0  0  0  0  0
   -4.0507   -1.7476    1.8413 H   0  0  0  0  0  0  0  0  0  0  0  0
   -3.7689   -2.6746    0.3581 H   0  0  0  0  0  0  0  0  0  0  0  0
   -2.2788    3.0944    0.4965 H   0  0  0  0  0  0  0  0  0  0  0  0
   -6.4155   -2.5870    0.6476 H   0  0  0  0  0  0  0  0  0  0  0  0
    0.8999   -1.3425    0.4116 H   0  0  0  0  0  0  0  0  0  0  0  0
   -0.0891    3.4921   -0.0060 H   0  0  0  0  0  0  0  0  0  0  0  0
    2.2174    2.7077   -0.1530 H   0  0  0  0  0  0  0  0  0  0  0  0
    3.4028    0.3089    2.1225 H   0  0  0  0  0  0  0  0  0  0  0  0
    5.3852   -0.8999   -2.2663 H   0  0  0  0  0  0  0  0  0  0  0  0
    6.7339   -1.0950   -0.2166 H   0  0  0  0  0  0  0  0  0  0  0  0
    1.8187   -1.8309   -1.9334 H   0  0  0  0  0  0  0  0  0  0  0  0
    2.7875   -1.8642   -3.4320 H   0  0  0  0  0  0  0  0  0  0  0  0
    1.2912   -0.9074   -3.3596 H   0  0  0  0  0  0  0  0  0  0  0  0
  1 24  1  0  0  0  0
  2 10  1  0  0  0  0
  2 34  1  0  0  0  0
  3 12  2  0  0  0  0
  4 13  2  0  0  0  0
  5 21  1  0  0  0  0
  5 26  1  0  0  0  0
  6  8  1  0  0  0  0
  6 11  1  0  0  0  0
  6 13  1  0  0  0  0
  7 12  1  0  0  0  0
  7 15  1  0  0  0  0
  7 33  1  0  0  0  0
  8  9  1  0  0  0  0
  8 12  1  0  0  0  0
  8 27  1  0  0  0  0
  9 10  1  0  0  0  0
  9 28  1  0  0  0  0
  9 29  1  0  0  0  0
 10 11  1  0  0  0  0
 10 30  1  0  0  0  0
 11 31  1  0  0  0  0
 11 32  1  0  0  0  0
 13 14  1  0  0  0  0
 14 15  2  0  0  0  0
 14 16  1  0  0  0  0
 15 17  1  0  0  0  0
 16 18  2  0  0  0  0
 16 35  1  0  0  0  0
 17 19  2  0  0  0  0
 17 36  1  0  0  0  0
 18 19  1  0  0  0  0
 18 20  1  0  0  0  0
 19 37  1  0  0  0  0
 20 21  2  0  0  0  0
 20 22  1  0  0  0  0
 21 23  1  0  0  0  0
 22 24  2  0  0  0  0
 22 38  1  0  0  0  0
 23 25  2  0  0  0  0
 23 39  1  0  0  0  0
 24 25  1  0  0  0  0
 25 40  1  0  0  0  0
 26 41  1  0  0  0  0
 26 42  1  0  0  0  0
 26 43  1  0  0  0  0
M  END
> <PUBCHEM_COMPOUND_CID>
11865998

> <PUBCHEM_CONFORMER_RMSD>
0.6

> <PUBCHEM_CONFORMER_DIVERSEORDER>
1
9
7
3
5
4
8
6
2

> <PUBCHEM_MMFF94_PARTIAL_CHARGES>
31
1 -0.18
10 0.28
11 0.3
12 0.57
13 0.54
14 0.09
15 0.12
16 -0.15
17 -0.15
19 -0.15
2 -0.68
21 0.08
22 -0.15
23 -0.15
24 0.18
25 -0.15
26 0.28
3 -0.57
33 0.37
34 0.4
35 0.15
36 0.15
37 0.15
38 0.15
39 0.15
4 -0.57
40 0.15
5 -0.36
6 -0.66
7 -0.55
8 0.36

> <PUBCHEM_EFFECTIVE_ROTOR_COUNT>
2.8

> <PUBCHEM_PHARMACOPHORE_FEATURES>
10
1 2 acceptor
1 2 donor
1 3 acceptor
1 4 acceptor
1 5 acceptor
1 7 donor
5 6 8 9 10 11 rings
6 14 15 16 17 18 19 rings
6 20 21 22 23 24 25 rings
7 6 7 8 12 13 14 15 rings

> <PUBCHEM_HEAVY_ATOM_COUNT>
26

> <PUBCHEM_ATOM_DEF_STEREO_COUNT>
2

> <PUBCHEM_ATOM_UDEF_STEREO_COUNT>
0

> <PUBCHEM_BOND_DEF_STEREO_COUNT>
0

> <PUBCHEM_BOND_UDEF_STEREO_COUNT>
0

> <PUBCHEM_ISOTOPIC_ATOM_COUNT>
0

> <PUBCHEM_COMPONENT_COUNT>
1

> <PUBCHEM_CACTVS_TAUTO_COUNT>
3

> <PUBCHEM_CONFORMER_ID>
00B50F8E00000001

> <PUBCHEM_MMFF94_ENERGY>
107.198

> <PUBCHEM_FEATURE_SELFOVERLAP>
50.807

> <PUBCHEM_SHAPE_FINGERPRINT>
10 15 17917412256445876714
11578080 2 16486699047958890321
12166972 35 17385722517006172316
12236239 1 17530963562519206616
12363563 72 18340498828027460284
12892183 10 16271657710290970472
13782708 43 17702673142752705286
13862211 1 18334287686641849939
14294032 229 17824825534340135421
146900 427 14979667815299291714
14790565 3 17404030223682023657
15183329 4 16877660150090206150
15788980 27 17917991672117155804
16752209 62 18260551121141831282
17349148 13 18186807958835958438
1813 80 18201169813867113365
18335252 114 15574981893505569127
19489759 90 18408319969166367778
200 152 16917066633453984313
20403669 9 18341619247672084439
20511986 3 17530958125386002244
21033648 29 17417797427246189408
21033650 10 17972062265563983692
21267235 1 18335987545199404707
21503847 285 13767925745314379198
21623969 137 17132115740738873742
21781051 124 17386294315426225915
22079108 93 15482377742995967954
22182313 1 17916596344690669413
22224240 67 16773787139452195890
23402539 116 18336542737703592829
23557571 272 18272380745391503780
23559900 14 18261950876764379537
3004659 81 17749107786388555570
335352 9 18407755942210234037
4340502 62 16056598789807812630
5104073 3 17488746658119296562
559249 180 18041550352240345395
59682541 52 14563077122752058146
9658208 31 17554346725630738672
9709674 26 18193278709435815321

> <PUBCHEM_SHAPE_MULTIPOLES>
503.5
13.86
2.05
1.81
0.88
0.89
-0.53
-5.87
2.47
-2.55
0.03
3.08
-0.89
0.74

> <PUBCHEM_SHAPE_SELFOVERLAP>
1105.207

> <PUBCHEM_SHAPE_VOLUME>
272.6

> <PUBCHEM_COORDINATE_TYPE>
2
5
10

$$$$
