56774421
  -OEChem-12032416213D

 35 37  0     1  0  0  0  0  0999 V2000
    4.4878    1.3992   -0.9759 O   0  0  0  0  0  0  0  0  0  0  0  0
    2.9229   -0.0386   -0.0699 N   0  0  0  0  0  0  0  0  0  0  0  0
   -1.4821   -1.3097    0.2094 N   0  0  0  0  0  0  0  0  0  0  0  0
   -0.4178    0.6408    0.1503 N   0  0  0  0  0  0  0  0  0  0  0  0
    1.0355   -1.4078    0.4078 C   0  0  1  0  0  0  0  0  0  0  0  0
    1.6267   -1.7977   -0.9559 C   0  0  0  0  0  0  0  0  0  0  0  0
    2.1934   -0.6308    1.0499 C   0  0  0  0  0  0  0  0  0  0  0  0
    2.4870   -0.6009   -1.3387 C   0  0  0  0  0  0  0  0  0  0  0  0
   -0.2790   -0.6620    0.2543 C   0  0  0  0  0  0  0  0  0  0  0  0
    3.9053    0.9324    0.0042 C   0  0  0  0  0  0  0  0  0  0  0  0
   -2.4627   -0.3617    0.0667 C   0  0  0  0  0  0  0  0  0  0  0  0
   -1.7731    0.8471    0.0324 C   0  0  0  0  0  0  0  0  0  0  0  0
   -1.6886   -2.7378    0.2958 C   0  0  0  0  0  0  0  0  0  0  0  0
   -3.8513   -0.4551   -0.0322 C   0  0  0  0  0  0  0  0  0  0  0  0
    4.2370    1.4184    1.3921 C   0  0  0  0  0  0  0  0  0  0  0  0
   -2.4957    2.0440   -0.1086 C   0  0  0  0  0  0  0  0  0  0  0  0
   -4.5546    0.7458   -0.1719 C   0  0  0  0  0  0  0  0  0  0  0  0
   -3.8908    1.9744   -0.2097 C   0  0  0  0  0  0  0  0  0  0  0  0
    0.8491   -2.3027    1.0135 H   0  0  0  0  0  0  0  0  0  0  0  0
    0.8823   -2.0325   -1.7228 H   0  0  0  0  0  0  0  0  0  0  0  0
    2.2700   -2.6780   -0.8302 H   0  0  0  0  0  0  0  0  0  0  0  0
    2.8861   -1.3097    1.5603 H   0  0  0  0  0  0  0  0  0  0  0  0
    1.8664    0.1383    1.7554 H   0  0  0  0  0  0  0  0  0  0  0  0
    3.3468   -0.8725   -1.9584 H   0  0  0  0  0  0  0  0  0  0  0  0
    1.9047    0.1653   -1.8622 H   0  0  0  0  0  0  0  0  0  0  0  0
   -0.9826   -3.2409   -0.3693 H   0  0  0  0  0  0  0  0  0  0  0  0
   -1.5283   -3.0433    1.3327 H   0  0  0  0  0  0  0  0  0  0  0  0
   -2.7036   -2.9931   -0.0142 H   0  0  0  0  0  0  0  0  0  0  0  0
   -4.3742   -1.4039   -0.0015 H   0  0  0  0  0  0  0  0  0  0  0  0
    4.4883    0.5769    2.0429 H   0  0  0  0  0  0  0  0  0  0  0  0
    3.3890    1.9711    1.8050 H   0  0  0  0  0  0  0  0  0  0  0  0
    5.1015    2.0874    1.3473 H   0  0  0  0  0  0  0  0  0  0  0  0
   -1.9891    3.0034   -0.1390 H   0  0  0  0  0  0  0  0  0  0  0  0
   -5.6386    0.7219   -0.2520 H   0  0  0  0  0  0  0  0  0  0  0  0
   -4.4649    2.8909   -0.3190 H   0  0  0  0  0  0  0  0  0  0  0  0
  1 10  2  0  0  0  0
  2  7  1  0  0  0  0
  2  8  1  0  0  0  0
  2 10  1  0  0  0  0
  3  9  1  0  0  0  0
  3 11  1  0  0  0  0
  3 13  1  0  0  0  0
  4  9  2  0  0  0  0
  4 12  1  0  0  0  0
  5  6  1  0  0  0  0
  5  7  1  0  0  0  0
  5  9  1  0  0  0  0
  5 19  1  0  0  0  0
  6  8  1  0  0  0  0
  6 20  1  0  0  0  0
  6 21  1  0  0  0  0
  7 22  1  0  0  0  0
  7 23  1  0  0  0  0
  8 24  1  0  0  0  0
  8 25  1  0  0  0  0
 10 15  1  0  0  0  0
 11 12  1  0  0  0  0
 11 14  2  0  0  0  0
 12 16  2  0  0  0  0
 13 26  1  0  0  0  0
 13 27  1  0  0  0  0
 13 28  1  0  0  0  0
 14 17  1  0  0  0  0
 14 29  1  0  0  0  0
 15 30  1  0  0  0  0
 15 31  1  0  0  0  0
 15 32  1  0  0  0  0
 16 18  1  0  0  0  0
 16 33  1  0  0  0  0
 17 18  2  0  0  0  0
 17 34  1  0  0  0  0
 18 35  1  0  0  0  0
M  END
> <PUBCHEM_COMPOUND_CID>
56774421

> <PUBCHEM_CONFORMER_RMSD>
0.6

> <PUBCHEM_CONFORMER_DIVERSEORDER>
2
3
8
5
6
7
4
1
10
9

> <PUBCHEM_MMFF94_PARTIAL_CHARGES>
21
1 -0.57
10 0.57
11 -0.15
12 0.23
13 0.26
14 -0.15
15 0.06
16 -0.15
17 -0.15
18 -0.15
2 -0.66
29 0.15
3 0.05
33 0.15
34 0.15
35 0.15
4 -0.57
5 0.18
7 0.3
8 0.3
9 0.01

> <PUBCHEM_EFFECTIVE_ROTOR_COUNT>
3

> <PUBCHEM_PHARMACOPHORE_FEATURES>
5
1 1 acceptor
3 3 4 9 cation
5 2 5 6 7 8 rings
5 3 4 9 11 12 rings
6 11 12 14 16 17 18 rings

> <PUBCHEM_HEAVY_ATOM_COUNT>
18

> <PUBCHEM_ATOM_DEF_STEREO_COUNT>
1

> <PUBCHEM_ATOM_UDEF_STEREO_COUNT>
0

> <PUBCHEM_BOND_DEF_STEREO_COUNT>
0

> <PUBCHEM_BOND_UDEF_STEREO_COUNT>
0

> <PUBCHEM_ISOTOPIC_ATOM_COUNT>
0

> <PUBCHEM_COMPONENT_COUNT>
1

> <PUBCHEM_CACTVS_TAUTO_COUNT>
1

> <PUBCHEM_CONFORMER_ID>
03624F1500000002

> <PUBCHEM_MMFF94_ENERGY>
36.855

> <PUBCHEM_FEATURE_SELFOVERLAP>
25.48

> <PUBCHEM_SHAPE_FINGERPRINT>
10411042 1 17472701802415432258
10498660 4 18410855417389992173
10608611 8 18341049631560018000
10646746 165 18408887321777759060
11132069 177 18409165545274393952
11543360 7 16916776392760246093
11715629 250 18410009897132007885
12173636 292 18337106761899810053
12390115 104 18199484198692359833
12403814 3 17313096467299246733
12670546 177 17775559853834401093
12788726 201 16810417502112082506
13583140 156 16588024649459451329
13675066 3 12035443960698441654
13965767 371 17534618205551687845
14790565 3 18198069067230193513
15196674 1 18409448055506956513
15239191 94 10807929366665133893
15375358 24 18343017804607814865
15536298 74 18339645538052610556
15885798 251 9655567518220016215
16945 1 18408610266444001075
1741750 31 18410011022403000363
18186145 218 18197221343315843045
19862831 5 14189573039738750280
20510252 161 18342179930088514985
20645477 56 18410578387624843883
20645477 70 17131562660820856478
20715895 44 17681537152995755661
23114952 82 17916034460000050174
23227448 37 18339922743900693229
23402539 116 18410564106753219774
23557571 272 18267879443529815454
23559900 14 18128252286051988630
2838139 119 18199739414487189120
4028521 119 18341897380821360317
42 15 8646767794041824813
4340502 62 16443067180106037163
474 4 17458634453333488252
5104073 3 18336267830237943051
5281201 14 17916311545498968236
6333272 397 18334577923372722193
633830 44 18055914299658739565
7364860 26 18266457594944370522
7808743 9 18335144245276793812
9709674 26 18341899588498172511
9981440 41 18335697269312959386

> <PUBCHEM_SHAPE_MULTIPOLES>
349.62
8.81
2.33
1
1.6
0.5
0.04
-5.36
0.27
-0.69
-0.05
1.11
0
0.64

> <PUBCHEM_SHAPE_SELFOVERLAP>
754.894

> <PUBCHEM_SHAPE_VOLUME>
194.2

> <PUBCHEM_COORDINATE_TYPE>
2
5
10

$$$$
