25313142
  -OEChem-12032416193D

 63 65  0     1  0  0  0  0  0999 V2000
   -5.1245    2.8440    1.5200 F   0  0  0  0  0  0  0  0  0  0  0  0
   -6.5865    1.2346    1.5392 F   0  0  0  0  0  0  0  0  0  0  0  0
   -6.4029    2.5236   -0.2024 F   0  0  0  0  0  0  0  0  0  0  0  0
   -1.7499   -1.8284   -2.6874 O   0  0  0  0  0  0  0  0  0  0  0  0
    4.8842   -4.9458    0.7683 O   0  0  0  0  0  0  0  0  0  0  0  0
    2.8318   -5.9296    0.7848 O   0  0  0  0  0  0  0  0  0  0  0  0
    5.6801    4.9017   -0.2340 O   0  0  0  0  0  0  0  0  0  0  0  0
   -0.9990   -2.4931   -0.5735 N   0  0  0  0  0  0  0  0  0  0  0  0
    2.0612    1.5055    0.0942 N   0  0  0  0  0  0  0  0  0  0  0  0
    3.5906    3.8914   -0.3256 N   0  0  0  0  0  0  0  0  0  0  0  0
    0.9604   -2.0479    0.8889 C   0  0  2  0  0  0  0  0  0  0  0  0
    1.5198   -3.4393    0.4969 C   0  0  1  0  0  0  0  0  0  0  0  0
   -0.5741   -2.0441    0.7599 C   0  0  0  0  0  0  0  0  0  0  0  0
    1.0096   -3.8855   -0.8840 C   0  0  0  0  0  0  0  0  0  0  0  0
    1.5646   -0.8862    0.0902 C   0  0  0  0  0  0  0  0  0  0  0  0
   -0.5131   -3.8165   -0.9595 C   0  0  0  0  0  0  0  0  0  0  0  0
    1.4957    0.4115    0.8825 C   0  0  0  0  0  0  0  0  0  0  0  0
    3.0453   -3.5122    0.5569 C   0  0  0  0  0  0  0  0  0  0  0  0
    1.5664    2.8018    0.5804 C   0  0  0  0  0  0  0  0  0  0  0  0
    3.5302    1.4671    0.1369 C   0  0  0  0  0  0  0  0  0  0  0  0
   -1.7972   -1.7661   -1.4599 C   0  0  0  0  0  0  0  0  0  0  0  0
    2.1275    3.9521   -0.2578 C   0  0  0  0  0  0  0  0  0  0  0  0
    4.1261    2.5878   -0.7143 C   0  0  0  0  0  0  0  0  0  0  0  0
    3.5276   -4.9278    0.7141 C   0  0  0  0  0  0  0  0  0  0  0  0
   -2.7860   -0.8401   -0.8968 C   0  0  0  0  0  0  0  0  0  0  0  0
    4.4505    4.9781   -0.1725 C   0  0  0  0  0  0  0  0  0  0  0  0
   -3.7937   -1.3192   -0.0597 C   0  0  0  0  0  0  0  0  0  0  0  0
   -2.7188    0.5200   -1.1993 C   0  0  0  0  0  0  0  0  0  0  0  0
    3.8062    6.3163    0.0879 C   0  0  0  0  0  0  0  0  0  0  0  0
   -4.7340   -0.4386    0.4748 C   0  0  0  0  0  0  0  0  0  0  0  0
   -3.6590    1.4007   -0.6650 C   0  0  0  0  0  0  0  0  0  0  0  0
   -4.6666    0.9214    0.1721 C   0  0  0  0  0  0  0  0  0  0  0  0
   -5.6724    1.8628    0.7438 C   0  0  0  0  0  0  0  0  0  0  0  0
    1.2036   -1.8975    1.9499 H   0  0  0  0  0  0  0  0  0  0  0  0
    1.1109   -4.1463    1.2341 H   0  0  0  0  0  0  0  0  0  0  0  0
   -1.0130   -2.7403    1.4851 H   0  0  0  0  0  0  0  0  0  0  0  0
   -0.9828   -1.0548    0.9785 H   0  0  0  0  0  0  0  0  0  0  0  0
    1.3299   -4.9080   -1.1110 H   0  0  0  0  0  0  0  0  0  0  0  0
    1.4361   -3.2390   -1.6617 H   0  0  0  0  0  0  0  0  0  0  0  0
    1.0614   -0.7687   -0.8773 H   0  0  0  0  0  0  0  0  0  0  0  0
    2.6089   -1.1049   -0.1397 H   0  0  0  0  0  0  0  0  0  0  0  0
   -0.8519   -4.0661   -1.9705 H   0  0  0  0  0  0  0  0  0  0  0  0
   -0.9641   -4.5439   -0.2743 H   0  0  0  0  0  0  0  0  0  0  0  0
    1.9963    0.3153    1.8546 H   0  0  0  0  0  0  0  0  0  0  0  0
    0.4415    0.6255    1.0947 H   0  0  0  0  0  0  0  0  0  0  0  0
    3.4989   -3.1006   -0.3515 H   0  0  0  0  0  0  0  0  0  0  0  0
    3.4096   -2.9515    1.4260 H   0  0  0  0  0  0  0  0  0  0  0  0
    1.8410    2.9471    1.6337 H   0  0  0  0  0  0  0  0  0  0  0  0
    0.4721    2.8367    0.5159 H   0  0  0  0  0  0  0  0  0  0  0  0
    3.9201    0.5223   -0.2539 H   0  0  0  0  0  0  0  0  0  0  0  0
    3.8889    1.5675    1.1702 H   0  0  0  0  0  0  0  0  0  0  0  0
    1.7556    3.8942   -1.2882 H   0  0  0  0  0  0  0  0  0  0  0  0
    1.7823    4.8999    0.1602 H   0  0  0  0  0  0  0  0  0  0  0  0
    5.2177    2.5769   -0.6297 H   0  0  0  0  0  0  0  0  0  0  0  0
    3.8798    2.4395   -1.7730 H   0  0  0  0  0  0  0  0  0  0  0  0
    5.2339   -5.8566    0.8707 H   0  0  0  0  0  0  0  0  0  0  0  0
   -3.8601   -2.3771    0.1815 H   0  0  0  0  0  0  0  0  0  0  0  0
   -1.9358    0.9062   -1.8471 H   0  0  0  0  0  0  0  0  0  0  0  0
    3.3035    6.3081    1.0586 H   0  0  0  0  0  0  0  0  0  0  0  0
    3.0981    6.5603   -0.7086 H   0  0  0  0  0  0  0  0  0  0  0  0
    4.5764    7.0936    0.1065 H   0  0  0  0  0  0  0  0  0  0  0  0
   -5.5111   -0.8321    1.1240 H   0  0  0  0  0  0  0  0  0  0  0  0
   -3.5978    2.4587   -0.9055 H   0  0  0  0  0  0  0  0  0  0  0  0
  1 33  1  0  0  0  0
  2 33  1  0  0  0  0
  3 33  1  0  0  0  0
  4 21  2  0  0  0  0
  5 24  1  0  0  0  0
  5 56  1  0  0  0  0
  6 24  2  0  0  0  0
  7 26  2  0  0  0  0
  8 13  1  0  0  0  0
  8 16  1  0  0  0  0
  8 21  1  0  0  0  0
  9 17  1  0  0  0  0
  9 19  1  0  0  0  0
  9 20  1  0  0  0  0
 10 22  1  0  0  0  0
 10 23  1  0  0  0  0
 10 26  1  0  0  0  0
 11 12  1  0  0  0  0
 11 13  1  0  0  0  0
 11 15  1  0  0  0  0
 11 34  1  0  0  0  0
 12 14  1  0  0  0  0
 12 18  1  0  0  0  0
 12 35  1  0  0  0  0
 13 36  1  0  0  0  0
 13 37  1  0  0  0  0
 14 16  1  0  0  0  0
 14 38  1  0  0  0  0
 14 39  1  0  0  0  0
 15 17  1  0  0  0  0
 15 40  1  0  0  0  0
 15 41  1  0  0  0  0
 16 42  1  0  0  0  0
 16 43  1  0  0  0  0
 17 44  1  0  0  0  0
 17 45  1  0  0  0  0
 18 24  1  0  0  0  0
 18 46  1  0  0  0  0
 18 47  1  0  0  0  0
 19 22  1  0  0  0  0
 19 48  1  0  0  0  0
 19 49  1  0  0  0  0
 20 23  1  0  0  0  0
 20 50  1  0  0  0  0
 20 51  1  0  0  0  0
 21 25  1  0  0  0  0
 22 52  1  0  0  0  0
 22 53  1  0  0  0  0
 23 54  1  0  0  0  0
 23 55  1  0  0  0  0
 25 27  2  0  0  0  0
 25 28  1  0  0  0  0
 26 29  1  0  0  0  0
 27 30  1  0  0  0  0
 27 57  1  0  0  0  0
 28 31  2  0  0  0  0
 28 58  1  0  0  0  0
 29 59  1  0  0  0  0
 29 60  1  0  0  0  0
 29 61  1  0  0  0  0
 30 32  2  0  0  0  0
 30 62  1  0  0  0  0
 31 32  1  0  0  0  0
 31 63  1  0  0  0  0
 32 33  1  0  0  0  0
M  END
> <PUBCHEM_COMPOUND_CID>
25313142

> <PUBCHEM_CONFORMER_RMSD>
1.2

> <PUBCHEM_CONFORMER_DIVERSEORDER>
5
45
83
61
57
36
77
89
20
84
93
97
50
16
90
59
51
24
30
39
72
25
54
29
49
78
47
21
65
48
92
91
73
56
8
33
44
38
35
88
55
17
70
42
86
81
3
96
27
15
76
4
94
14
62
12
46
60
85
34
11
32
43
75
9
41
40
68
23
66
71
74
28
22
37
53
80
64
98
63
95
1
67
69
52
2
87
79
7
19
58
10
6
82
18
13
31
26

> <PUBCHEM_MMFF94_PARTIAL_CHARGES>
34
1 -0.34
10 -0.66
13 0.3
16 0.3
17 0.27
18 0.06
19 0.27
2 -0.34
20 0.27
21 0.54
22 0.3
23 0.3
24 0.66
25 0.09
26 0.57
27 -0.15
28 -0.15
29 0.06
3 -0.34
30 -0.15
31 -0.15
32 -0.14
33 1.16
4 -0.57
5 -0.65
56 0.5
57 0.15
58 0.15
6 -0.57
62 0.15
63 0.15
7 -0.57
8 -0.66
9 -0.81

> <PUBCHEM_EFFECTIVE_ROTOR_COUNT>
11.4

> <PUBCHEM_PHARMACOPHORE_FEATURES>
9
1 4 acceptor
1 5 acceptor
1 6 acceptor
1 7 acceptor
1 9 cation
3 5 6 24 anion
6 25 27 28 30 31 32 rings
6 8 11 12 13 14 16 rings
6 9 10 19 20 22 23 rings

> <PUBCHEM_HEAVY_ATOM_COUNT>
33

> <PUBCHEM_ATOM_DEF_STEREO_COUNT>
2

> <PUBCHEM_ATOM_UDEF_STEREO_COUNT>
0

> <PUBCHEM_BOND_DEF_STEREO_COUNT>
0

> <PUBCHEM_BOND_UDEF_STEREO_COUNT>
0

> <PUBCHEM_ISOTOPIC_ATOM_COUNT>
0

> <PUBCHEM_COMPONENT_COUNT>
1

> <PUBCHEM_CACTVS_TAUTO_COUNT>
1

> <PUBCHEM_CONFORMER_ID>
01823F7600000005

> <PUBCHEM_MMFF94_ENERGY>
72.2292

> <PUBCHEM_FEATURE_SELFOVERLAP>
45.729

> <PUBCHEM_SHAPE_FINGERPRINT>
10675989 125 18412552024525623596
10688039 33 17691121535282288211
10937287 8 18340203119597858413
11049842 53 18123167255822489202
11434127 23 17404860844697575596
12107183 9 18191568948002572192
13590594 115 17905324031165726514
14251764 75 18343032107614561873
14363568 33 18336264522717667548
14394314 77 18337941352146631762
14790565 3 18338518671994858736
14849402 71 18338240357950450259
14955137 171 18122344575500139871
15081414 286 18265604391142932858
151778 21 18412261731701252041
15198563 99 17547575881951010366
15400415 2 18193275427907617764
15980000 95 18122344567574232950
16990350 14 18410857667868927192
17980427 26 18339915013265607110
18393751 57 17902519525259728251
18785283 64 18339928100205036879
19301679 30 17400075275450607811
19319366 153 18341896341666608833
20739085 24 18197773298048154482
21133410 127 18040991839279552197
21365058 113 17697055647261746447
21641784 216 17764881195343398494
21987483 16 18263098716788529411
283562 15 17834669775101348359
3552219 110 17608945175296323230
3610482 184 17539699409983394100
469060 322 15288706594560635983
6058803 2 18200294607439576015
6086070 43 17755838850703375847
6376802 90 17762630882047184148
6673363 416 15885477732397792964
6700243 42 16247766749403304444
6703917 75 17974588079980426996
7288768 16 17969780985157861281
9896288 288 18051424151942598035

> <PUBCHEM_SHAPE_MULTIPOLES>
618.88
12.55
10.07
1.28
5.37
6.89
-0.4
-21.68
1.87
-15.77
1.88
1.23
0.42
-3.42

> <PUBCHEM_SHAPE_SELFOVERLAP>
1290.78

> <PUBCHEM_SHAPE_VOLUME>
350.4

> <PUBCHEM_COORDINATE_TYPE>
2
5
10

$$$$
