45361537
  -OEChem-12032416343D

 73 76  0     1  0  0  0  0  0999 V2000
    2.3950    1.2635   -1.4519 O   0  0  0  0  0  0  0  0  0  0  0  0
    6.6214   -1.6289   -0.3113 O   0  0  0  0  0  0  0  0  0  0  0  0
   -3.7608    1.0479    1.6296 O   0  0  0  0  0  0  0  0  0  0  0  0
   -6.1220    1.1430    0.3401 O   0  0  0  0  0  0  0  0  0  0  0  0
   -2.7146    0.0059   -0.1664 N   0  0  0  0  0  0  0  0  0  0  0  0
    6.7302    0.6521    0.0395 N   0  0  0  0  0  0  0  0  0  0  0  0
    1.1711   -1.6095    0.7442 C   0  0  1  0  0  0  0  0  0  0  0  0
    1.1308   -0.2343   -0.0016 C   0  0  2  0  0  0  0  0  0  0  0  0
   -0.2771    0.0060   -0.6555 C   0  0  1  0  0  0  0  0  0  0  0  0
    2.3478   -0.0758   -0.9579 C   0  0  2  0  0  0  0  0  0  0  0  0
    2.5286   -1.7636    1.4698 C   0  0  0  0  0  0  0  0  0  0  0  0
    3.6982   -0.3335   -0.2497 C   0  0  1  0  0  0  0  0  0  0  0  0
    0.0584   -1.6338    1.8176 C   0  0  0  0  0  0  0  0  0  0  0  0
   -1.3948   -0.0951    0.4203 C   0  0  2  0  0  0  0  0  0  0  0  0
    3.7214   -1.6482    0.5298 C   0  0  0  0  0  0  0  0  0  0  0  0
   -1.3291   -1.3798    1.2459 C   0  0  0  0  0  0  0  0  0  0  0  0
    0.9804   -2.8115   -0.2154 C   0  0  0  0  0  0  0  0  0  0  0  0
    4.8728   -0.3015   -1.2352 C   0  0  2  0  0  0  0  0  0  0  0  0
   -0.3960    1.3561   -1.3828 C   0  0  0  0  0  0  0  0  0  0  0  0
    4.7293   -1.3797   -2.2938 C   0  0  0  0  0  0  0  0  0  0  0  0
    6.1537   -0.4994   -0.4649 C   0  0  0  0  0  0  0  0  0  0  0  0
   -3.7887    0.5736    0.4972 C   0  0  0  0  0  0  0  0  0  0  0  0
    7.9642    0.6296    0.8111 C   0  0  0  0  0  0  0  0  0  0  0  0
    6.2307    2.0154   -0.1098 C   0  0  0  0  0  0  0  0  0  0  0  0
    8.3991    2.0855    0.8756 C   0  0  0  0  0  0  0  0  0  0  0  0
    7.0734    2.8359    0.8562 C   0  0  0  0  0  0  0  0  0  0  0  0
   -5.0433    0.5481   -0.3494 C   0  0  0  0  0  0  0  0  0  0  0  0
   -7.3836    0.6776    0.0528 C   0  0  0  0  0  0  0  0  0  0  0  0
   -7.6699    0.1769   -1.2172 C   0  0  0  0  0  0  0  0  0  0  0  0
   -8.3769    0.7060    1.0315 C   0  0  0  0  0  0  0  0  0  0  0  0
   -8.9497   -0.2953   -1.5087 C   0  0  0  0  0  0  0  0  0  0  0  0
   -9.6567    0.2339    0.7403 C   0  0  0  0  0  0  0  0  0  0  0  0
   -9.9432   -0.2667   -0.5298 C   0  0  0  0  0  0  0  0  0  0  0  0
    1.2382    0.5559    0.7590 H   0  0  0  0  0  0  0  0  0  0  0  0
   -0.4516   -0.7663   -1.4153 H   0  0  0  0  0  0  0  0  0  0  0  0
    2.1946   -0.7332   -1.8162 H   0  0  0  0  0  0  0  0  0  0  0  0
    2.6209   -0.9929    2.2471 H   0  0  0  0  0  0  0  0  0  0  0  0
    2.5738   -2.7288    1.9905 H   0  0  0  0  0  0  0  0  0  0  0  0
    3.8379    0.4679    0.4872 H   0  0  0  0  0  0  0  0  0  0  0  0
    0.0580   -2.5973    2.3430 H   0  0  0  0  0  0  0  0  0  0  0  0
    0.2640   -0.8695    2.5792 H   0  0  0  0  0  0  0  0  0  0  0  0
   -1.2753    0.7504    1.1119 H   0  0  0  0  0  0  0  0  0  0  0  0
    3.7339   -2.5278   -0.1169 H   0  0  0  0  0  0  0  0  0  0  0  0
    4.6158   -1.7134    1.1593 H   0  0  0  0  0  0  0  0  0  0  0  0
   -2.0478   -1.3263    2.0739 H   0  0  0  0  0  0  0  0  0  0  0  0
   -1.6492   -2.2359    0.6394 H   0  0  0  0  0  0  0  0  0  0  0  0
    0.0047   -2.8111   -0.7078 H   0  0  0  0  0  0  0  0  0  0  0  0
    1.0604   -3.7579    0.3323 H   0  0  0  0  0  0  0  0  0  0  0  0
    1.7290   -2.8337   -1.0123 H   0  0  0  0  0  0  0  0  0  0  0  0
    4.9020    0.6561   -1.7648 H   0  0  0  0  0  0  0  0  0  0  0  0
    0.1971    1.3630   -2.3015 H   0  0  0  0  0  0  0  0  0  0  0  0
   -0.0746    2.1829   -0.7411 H   0  0  0  0  0  0  0  0  0  0  0  0
   -1.4240    1.5619   -1.6981 H   0  0  0  0  0  0  0  0  0  0  0  0
   -2.8644   -0.4152   -1.0791 H   0  0  0  0  0  0  0  0  0  0  0  0
    2.4883    1.8628   -0.6918 H   0  0  0  0  0  0  0  0  0  0  0  0
    3.8656   -1.2195   -2.9442 H   0  0  0  0  0  0  0  0  0  0  0  0
    5.6061   -1.3559   -2.9544 H   0  0  0  0  0  0  0  0  0  0  0  0
    4.6861   -2.4000   -1.9054 H   0  0  0  0  0  0  0  0  0  0  0  0
    8.7070   -0.0215    0.3408 H   0  0  0  0  0  0  0  0  0  0  0  0
    7.7271    0.2356    1.8055 H   0  0  0  0  0  0  0  0  0  0  0  0
    5.1650    2.0978    0.1069 H   0  0  0  0  0  0  0  0  0  0  0  0
    6.4103    2.3246   -1.1455 H   0  0  0  0  0  0  0  0  0  0  0  0
    8.9835    2.3434   -0.0159 H   0  0  0  0  0  0  0  0  0  0  0  0
    9.0039    2.3064    1.7591 H   0  0  0  0  0  0  0  0  0  0  0  0
    6.6235    2.8171    1.8562 H   0  0  0  0  0  0  0  0  0  0  0  0
    7.1762    3.8790    0.5452 H   0  0  0  0  0  0  0  0  0  0  0  0
   -5.2352   -0.5087   -0.5791 H   0  0  0  0  0  0  0  0  0  0  0  0
   -4.8504    1.1030   -1.2747 H   0  0  0  0  0  0  0  0  0  0  0  0
   -6.9321    0.1622   -2.0139 H   0  0  0  0  0  0  0  0  0  0  0  0
   -8.1593    1.0948    2.0225 H   0  0  0  0  0  0  0  0  0  0  0  0
   -9.1750   -0.6796   -2.4993 H   0  0  0  0  0  0  0  0  0  0  0  0
  -10.4303    0.2563    1.5023 H   0  0  0  0  0  0  0  0  0  0  0  0
  -10.9401   -0.6330   -0.7570 H   0  0  0  0  0  0  0  0  0  0  0  0
  1 10  1  0  0  0  0
  1 55  1  0  0  0  0
  2 21  2  0  0  0  0
  3 22  2  0  0  0  0
  4 27  1  0  0  0  0
  4 28  1  0  0  0  0
  5 14  1  0  0  0  0
  5 22  1  0  0  0  0
  5 54  1  0  0  0  0
  6 21  1  0  0  0  0
  6 23  1  0  0  0  0
  6 24  1  0  0  0  0
  7  8  1  0  0  0  0
  7 11  1  0  0  0  0
  7 13  1  0  0  0  0
  7 17  1  0  0  0  0
  8  9  1  0  0  0  0
  8 10  1  0  0  0  0
  8 34  1  0  0  0  0
  9 14  1  0  0  0  0
  9 19  1  0  0  0  0
  9 35  1  0  0  0  0
 10 12  1  0  0  0  0
 10 36  1  0  0  0  0
 11 15  1  0  0  0  0
 11 37  1  0  0  0  0
 11 38  1  0  0  0  0
 12 15  1  0  0  0  0
 12 18  1  0  0  0  0
 12 39  1  0  0  0  0
 13 16  1  0  0  0  0
 13 40  1  0  0  0  0
 13 41  1  0  0  0  0
 14 16  1  0  0  0  0
 14 42  1  0  0  0  0
 15 43  1  0  0  0  0
 15 44  1  0  0  0  0
 16 45  1  0  0  0  0
 16 46  1  0  0  0  0
 17 47  1  0  0  0  0
 17 48  1  0  0  0  0
 17 49  1  0  0  0  0
 18 20  1  0  0  0  0
 18 21  1  0  0  0  0
 18 50  1  0  0  0  0
 19 51  1  0  0  0  0
 19 52  1  0  0  0  0
 19 53  1  0  0  0  0
 20 56  1  0  0  0  0
 20 57  1  0  0  0  0
 20 58  1  0  0  0  0
 22 27  1  0  0  0  0
 23 25  1  0  0  0  0
 23 59  1  0  0  0  0
 23 60  1  0  0  0  0
 24 26  1  0  0  0  0
 24 61  1  0  0  0  0
 24 62  1  0  0  0  0
 25 26  1  0  0  0  0
 25 63  1  0  0  0  0
 25 64  1  0  0  0  0
 26 65  1  0  0  0  0
 26 66  1  0  0  0  0
 27 67  1  0  0  0  0
 27 68  1  0  0  0  0
 28 29  2  0  0  0  0
 28 30  1  0  0  0  0
 29 31  1  0  0  0  0
 29 69  1  0  0  0  0
 30 32  2  0  0  0  0
 30 70  1  0  0  0  0
 31 33  2  0  0  0  0
 31 71  1  0  0  0  0
 32 33  1  0  0  0  0
 32 72  1  0  0  0  0
 33 73  1  0  0  0  0
M  END
> <PUBCHEM_COMPOUND_CID>
45361537

> <PUBCHEM_CONFORMER_RMSD>
1.2

> <PUBCHEM_CONFORMER_DIVERSEORDER>
1
43
95
35
121
58
20
128
10
105
111
75
126
27
85
119
120
102
84
118
101
114
116
52
47
49
106
23
53
132
14
55
59
34
50
127
87
71
82
63
117
76
66
26
51
44
108
109
80
124
32
68
112
94
133
130
86
122
70
79
46
17
28
93
7
62
131
67
31
88
19
2
110
78
99
77
54
92
18
74
115
91
113
57
90
60
12
15
69
16
65
89
40
8
81
64
39
98
83
61
41
37
104
36
6
72
123
21
4
9
125
100
103
96
5
56
129
11
33
107
24
48
22
73
42
45
29
97
13
30
25
38
3

> <PUBCHEM_MMFF94_PARTIAL_CHARGES>
27
1 -0.68
10 0.28
14 0.3
18 0.06
2 -0.57
21 0.57
22 0.57
23 0.3
24 0.3
27 0.34
28 0.08
29 -0.15
3 -0.57
30 -0.15
31 -0.15
32 -0.15
33 -0.15
4 -0.36
5 -0.73
54 0.37
55 0.4
6 -0.66
69 0.15
70 0.15
71 0.15
72 0.15
73 0.15

> <PUBCHEM_EFFECTIVE_ROTOR_COUNT>
10.6

> <PUBCHEM_PHARMACOPHORE_FEATURES>
11
1 1 acceptor
1 1 donor
1 2 acceptor
1 20 hydrophobe
1 3 acceptor
1 4 acceptor
1 5 donor
5 6 23 24 25 26 rings
6 28 29 30 31 32 33 rings
6 7 8 10 11 12 15 rings
6 7 8 9 13 14 16 rings

> <PUBCHEM_HEAVY_ATOM_COUNT>
33

> <PUBCHEM_ATOM_DEF_STEREO_COUNT>
6

> <PUBCHEM_ATOM_UDEF_STEREO_COUNT>
1

> <PUBCHEM_BOND_DEF_STEREO_COUNT>
0

> <PUBCHEM_BOND_UDEF_STEREO_COUNT>
0

> <PUBCHEM_ISOTOPIC_ATOM_COUNT>
0

> <PUBCHEM_COMPONENT_COUNT>
1

> <PUBCHEM_CACTVS_TAUTO_COUNT>
2

> <PUBCHEM_CONFORMER_ID>
02B4298100000001

> <PUBCHEM_MMFF94_ENERGY>
102.0366

> <PUBCHEM_FEATURE_SELFOVERLAP>
55.843

> <PUBCHEM_SHAPE_FINGERPRINT>
10 15 17022906774644374060
10162869 55 17676205806186029591
11135609 127 17846211211909950912
11146346 60 16298959774611264584
11331351 85 8790882978134684403
11409948 35 11026060374841271528
11443803 9 18260542346761646323
11719270 70 16877665643226686794
12089408 11 17917993859157375213
12838862 33 17748817532324293567
13008946 113 16735252645639193644
13383668 254 17988097672635722593
13617811 41 13758361081407188304
14017578 135 18340498798511907193
14118638 360 18041277652736420837
14142895 15 17917710240090430053
14216079 64 9295294941378048128
14400156 350 18337116782887447300
15183329 4 18261111856021138895
15840311 113 18413673504884414044
16120349 18 18341610443021191704
16728433 110 18409729582872984049
17686467 74 18413389852639352881
18365409 1 18271804687673597999
20554085 129 17022617585083539193
20771845 171 16128669539747449756
21049683 271 15913325801626060273
21150785 3 17632858624774254289
21403212 168 17676483960535569176
21792934 111 17385435501917249304
22224240 67 18187082853828034155
24771293 8 18261114054432900021
24893992 56 18113619018651240929
25269216 80 13398642657976804384
3092352 35 17489869332310508150
335352 9 17822020783198247622
34797466 226 18060423482305595516
395649 100 18340483474358745103
4093350 32 18131634469970983844
44426699 60 16415761921474760510
44880568 143 17631182891702752593
474113 269 13695859304050360224
5470011 282 17275107210661518157
59682541 35 18040436598991684537
6057620 51 17703792501170901387
6081469 158 11674875597842926487
6201320 215 12613296648612847951
67123 10 17918274260176211469

> <PUBCHEM_SHAPE_MULTIPOLES>
645.69
31.25
2.16
1.56
52.39
0.07
-0.24
-14.1
-0.42
-4.83
0.51
-0.14
0.28
0.89

> <PUBCHEM_SHAPE_SELFOVERLAP>
1353.475

> <PUBCHEM_SHAPE_VOLUME>
362

> <PUBCHEM_COORDINATE_TYPE>
2
5
10

$$$$
