56775608
  -OEChem-12032416323D

 41 43  0     0  0  0  0  0  0999 V2000
   -5.6328    1.6691    1.2941 F   0  0  0  0  0  0  0  0  0  0  0  0
   -6.2888   -0.2986    0.6418 F   0  0  0  0  0  0  0  0  0  0  0  0
   -6.1775    1.3430   -0.7797 F   0  0  0  0  0  0  0  0  0  0  0  0
    1.8797   -3.6268    1.1611 O   0  0  0  0  0  0  0  0  0  0  0  0
    5.1505    0.9648    0.1752 O   0  0  0  0  0  0  0  0  0  0  0  0
    4.3905    3.5712    1.4684 O   0  0  0  0  0  0  0  0  0  0  0  0
    0.7118   -0.9666    0.2943 N   0  0  0  0  0  0  0  0  0  0  0  0
    4.7020   -0.3137   -0.1335 N   0  0  0  0  0  0  0  0  0  0  0  0
    1.8272   -1.8580   -0.0323 C   0  0  0  0  0  0  0  0  0  0  0  0
    1.3037   -3.2871   -0.1208 C   0  0  0  0  0  0  0  0  0  0  0  0
    2.4846   -2.3177    1.2639 C   0  0  0  0  0  0  0  0  0  0  0  0
    2.6900   -1.3320   -1.1382 C   0  0  0  0  0  0  0  0  0  0  0  0
   -0.0725   -0.7155   -0.9159 C   0  0  0  0  0  0  0  0  0  0  0  0
    3.4923   -0.1350   -0.6721 C   0  0  0  0  0  0  0  0  0  0  0  0
   -1.4810   -0.3317   -0.6101 C   0  0  0  0  0  0  0  0  0  0  0  0
    3.1284    1.2215   -0.7284 C   0  0  0  0  0  0  0  0  0  0  0  0
    4.2049    1.8702   -0.1836 C   0  0  0  0  0  0  0  0  0  0  0  0
   -2.3996   -1.3058   -0.2187 C   0  0  0  0  0  0  0  0  0  0  0  0
   -1.8796    1.0009   -0.7147 C   0  0  0  0  0  0  0  0  0  0  0  0
   -3.7167   -0.9473    0.0679 C   0  0  0  0  0  0  0  0  0  0  0  0
   -3.1966    1.3595   -0.4282 C   0  0  0  0  0  0  0  0  0  0  0  0
   -4.1152    0.3854   -0.0368 C   0  0  0  0  0  0  0  0  0  0  0  0
    4.5176    3.2811    0.0736 C   0  0  0  0  0  0  0  0  0  0  0  0
   -5.5227    0.7690    0.2727 C   0  0  0  0  0  0  0  0  0  0  0  0
    0.2211   -3.4482   -0.1162 H   0  0  0  0  0  0  0  0  0  0  0  0
    1.7425   -3.9019   -0.9141 H   0  0  0  0  0  0  0  0  0  0  0  0
    3.5749   -2.4126    1.2522 H   0  0  0  0  0  0  0  0  0  0  0  0
    2.1882   -1.8108    2.1885 H   0  0  0  0  0  0  0  0  0  0  0  0
    2.1514   -1.0882   -2.0599 H   0  0  0  0  0  0  0  0  0  0  0  0
    3.4086   -2.1067   -1.4431 H   0  0  0  0  0  0  0  0  0  0  0  0
    0.9767   -0.0806    0.7227 H   0  0  0  0  0  0  0  0  0  0  0  0
    0.3900    0.0815   -1.5102 H   0  0  0  0  0  0  0  0  0  0  0  0
   -0.1202   -1.5906   -1.5785 H   0  0  0  0  0  0  0  0  0  0  0  0
    2.2222    1.6681   -1.1094 H   0  0  0  0  0  0  0  0  0  0  0  0
   -2.1027   -2.3476   -0.1339 H   0  0  0  0  0  0  0  0  0  0  0  0
   -1.1745    1.7713   -1.0156 H   0  0  0  0  0  0  0  0  0  0  0  0
   -4.4165   -1.7210    0.3713 H   0  0  0  0  0  0  0  0  0  0  0  0
   -3.4977    2.4004   -0.5114 H   0  0  0  0  0  0  0  0  0  0  0  0
    5.5424    3.5129   -0.2339 H   0  0  0  0  0  0  0  0  0  0  0  0
    3.8350    3.9384   -0.4745 H   0  0  0  0  0  0  0  0  0  0  0  0
    4.6081    4.5121    1.5825 H   0  0  0  0  0  0  0  0  0  0  0  0
  1 24  1  0  0  0  0
  2 24  1  0  0  0  0
  3 24  1  0  0  0  0
  4 10  1  0  0  0  0
  4 11  1  0  0  0  0
  5  8  1  0  0  0  0
  5 17  1  0  0  0  0
  6 23  1  0  0  0  0
  6 41  1  0  0  0  0
  7  9  1  0  0  0  0
  7 13  1  0  0  0  0
  7 31  1  0  0  0  0
  8 14  2  0  0  0  0
  9 10  1  0  0  0  0
  9 11  1  0  0  0  0
  9 12  1  0  0  0  0
 10 25  1  0  0  0  0
 10 26  1  0  0  0  0
 11 27  1  0  0  0  0
 11 28  1  0  0  0  0
 12 14  1  0  0  0  0
 12 29  1  0  0  0  0
 12 30  1  0  0  0  0
 13 15  1  0  0  0  0
 13 32  1  0  0  0  0
 13 33  1  0  0  0  0
 14 16  1  0  0  0  0
 15 18  2  0  0  0  0
 15 19  1  0  0  0  0
 16 17  2  0  0  0  0
 16 34  1  0  0  0  0
 17 23  1  0  0  0  0
 18 20  1  0  0  0  0
 18 35  1  0  0  0  0
 19 21  2  0  0  0  0
 19 36  1  0  0  0  0
 20 22  2  0  0  0  0
 20 37  1  0  0  0  0
 21 22  1  0  0  0  0
 21 38  1  0  0  0  0
 22 24  1  0  0  0  0
 23 39  1  0  0  0  0
 23 40  1  0  0  0  0
M  END
> <PUBCHEM_COMPOUND_CID>
56775608

> <PUBCHEM_CONFORMER_RMSD>
0.8

> <PUBCHEM_CONFORMER_DIVERSEORDER>
1
54
55
56
92
77
39
115
69
41
103
61
118
87
114
60
59
42
105
68
5
113
71
82
16
75
101
96
88
86
112
80
62
85
116
89
34
84
109
65
66
38
20
98
90
31
45
15
70
58
53
63
8
25
48
81
4
47
79
13
111
83
104
95
57
99
44
72
19
106
94
18
91
43
64
67
93
36
100
40
51
108
50
102
9
35
74
78
117
32
29
10
23
110
14
22
37
76
107
7
33
26
24
52
30
97
6
73
28
21
11
49
27
46
17
2
3
12

> <PUBCHEM_MMFF94_PARTIAL_CHARGES>
31
1 -0.34
10 0.26
11 0.26
12 0.18
13 0.41
14 0.11
15 -0.14
16 -0.15
17 -0.04
18 -0.15
19 -0.15
2 -0.34
20 -0.15
21 -0.15
22 -0.14
23 0.46
24 1.16
3 -0.34
31 0.36
34 0.15
35 0.15
36 0.15
37 0.15
38 0.15
4 -0.52
41 0.4
5 -0.02
6 -0.68
7 -0.84
8 -0.41
9 0.21

> <PUBCHEM_EFFECTIVE_ROTOR_COUNT>
7.8

> <PUBCHEM_PHARMACOPHORE_FEATURES>
9
1 4 acceptor
1 6 acceptor
1 6 donor
1 7 cation
1 7 donor
1 8 acceptor
4 4 9 10 11 rings
5 5 8 14 16 17 rings
6 15 18 19 20 21 22 rings

> <PUBCHEM_HEAVY_ATOM_COUNT>
24

> <PUBCHEM_ATOM_DEF_STEREO_COUNT>
0

> <PUBCHEM_ATOM_UDEF_STEREO_COUNT>
0

> <PUBCHEM_BOND_DEF_STEREO_COUNT>
0

> <PUBCHEM_BOND_UDEF_STEREO_COUNT>
0

> <PUBCHEM_ISOTOPIC_ATOM_COUNT>
0

> <PUBCHEM_COMPONENT_COUNT>
1

> <PUBCHEM_CACTVS_TAUTO_COUNT>
1

> <PUBCHEM_CONFORMER_ID>
036253B800000001

> <PUBCHEM_MMFF94_ENERGY>
46.1075

> <PUBCHEM_FEATURE_SELFOVERLAP>
45.671

> <PUBCHEM_SHAPE_FINGERPRINT>
10692045 39 18340469146426239882
10835480 77 18188766146797436301
11112241 14 18261116305164126809
12107183 9 17472419855471230553
12596602 18 18272664432951832883
12617007 42 13901900116320347458
12633257 1 16153990256740668934
12730499 353 18334585628523218674
12769317 202 18343577469381155936
12788726 201 17417255316948985017
12925494 130 18265045830747146309
13533116 47 17968944050888505299
13878862 14 18117255000994735749
13955234 65 18263082132606463594
14251764 75 18266748054787033480
14461889 52 17895203242145382603
14528608 73 18413670223112584023
146900 427 18411142411509967473
14790565 3 18343871004620674481
14849402 71 18334296462177686156
15142526 21 18338515364890626904
16079462 125 17749100055500125357
17349148 13 12324243854051130895
17844677 252 18192718839269175461
21033648 29 18264768947343072088
21049683 118 18118101770913662506
21285901 2 12463569556750235922
21344244 78 18123449602250520394
21859007 373 16590257599030752127
22122407 14 18200326420367637905
23557571 272 16588585301552369111
23559900 14 18198911318305266287
23845131 108 18260545666518294562
239999 70 18270971150221362190
3246875 12 18195808698412426617
34797466 226 17988933254022547263
4340502 62 18260272949232750443
474 4 18261398874940688276
5104073 3 18115316562358586547
56616090 13 17987233516246140340
57091435 61 18342172306121079664
621550 34 18114177506170506599
633830 44 18341890835781838182
67856867 119 18335693919037936267
6913067 236 17313095389273336479
7808743 9 17902514023934538956
960060 61 11383837095174992176
9777508 108 18117283768533131850

> <PUBCHEM_SHAPE_MULTIPOLES>
444.52
13.75
3.68
1.06
14.53
0.32
0.17
-10.64
2.22
-5.63
1.37
-0.3
0
0.28

> <PUBCHEM_SHAPE_SELFOVERLAP>
951

> <PUBCHEM_SHAPE_VOLUME>
249

> <PUBCHEM_COORDINATE_TYPE>
2
5
10

$$$$
