25390428
  -OEChem-12032416173D

 41 41  0     1  0  0  0  0  0999 V2000
    1.0985    0.0894   -0.6160 O   0  0  0  0  0  0  0  0  0  0  0  0
    1.3568    3.3330    0.9047 O   0  0  0  0  0  0  0  0  0  0  0  0
    2.9629    2.4361   -1.1409 O   0  0  0  0  0  0  0  0  0  0  0  0
   -1.8628    0.7444   -1.4992 O   0  0  0  0  0  0  0  0  0  0  0  0
    0.5380   -2.4120    0.9322 O   0  0  0  0  0  0  0  0  0  0  0  0
    2.6753   -2.2010    0.0296 N   0  0  0  0  0  0  0  0  0  0  0  0
   -3.0826    0.3337    0.4358 N   0  0  0  0  0  0  0  0  0  0  0  0
    1.5631    1.9436    0.7642 C   0  0  1  0  0  0  0  0  0  0  0  0
    0.5006    1.2945   -0.1063 C   0  0  2  0  0  0  0  0  0  0  0  0
    2.8285    1.5984    0.0066 C   0  0  1  0  0  0  0  0  0  0  0  0
    2.5345    0.1815   -0.4735 C   0  0  1  0  0  0  0  0  0  0  0  0
   -0.7716    0.9541    0.6492 C   0  0  0  0  0  0  0  0  0  0  0  0
    2.9736   -0.8872    0.5181 C   0  0  0  0  0  0  0  0  0  0  0  0
   -1.9413    0.6727   -0.2757 C   0  0  0  0  0  0  0  0  0  0  0  0
   -4.3425    0.0179   -0.1973 C   0  0  0  0  0  0  0  0  0  0  0  0
    1.4757   -2.8601    0.2775 C   0  0  0  0  0  0  0  0  0  0  0  0
   -5.5034    0.4445    0.6917 C   0  0  0  0  0  0  0  0  0  0  0  0
   -4.4173   -1.4675   -0.5280 C   0  0  0  0  0  0  0  0  0  0  0  0
    1.4140   -4.2162   -0.3728 C   0  0  0  0  0  0  0  0  0  0  0  0
    1.5807    1.4848    1.7601 H   0  0  0  0  0  0  0  0  0  0  0  0
    0.2720    1.9435   -0.9615 H   0  0  0  0  0  0  0  0  0  0  0  0
    3.7372    1.7013    0.6066 H   0  0  0  0  0  0  0  0  0  0  0  0
    2.9707   -0.0167   -1.4596 H   0  0  0  0  0  0  0  0  0  0  0  0
   -1.0654    1.7963    1.2878 H   0  0  0  0  0  0  0  0  0  0  0  0
   -0.6202    0.0744    1.2853 H   0  0  0  0  0  0  0  0  0  0  0  0
    2.4700   -0.7604    1.4828 H   0  0  0  0  0  0  0  0  0  0  0  0
    4.0547   -0.8369    0.6831 H   0  0  0  0  0  0  0  0  0  0  0  0
    2.1292    3.6966    1.3700 H   0  0  0  0  0  0  0  0  0  0  0  0
    3.7647    2.1547   -1.6137 H   0  0  0  0  0  0  0  0  0  0  0  0
    3.3780   -2.6615   -0.5418 H   0  0  0  0  0  0  0  0  0  0  0  0
   -3.0227    0.2465    1.4466 H   0  0  0  0  0  0  0  0  0  0  0  0
   -4.4010    0.5815   -1.1364 H   0  0  0  0  0  0  0  0  0  0  0  0
   -6.4637    0.2431    0.2057 H   0  0  0  0  0  0  0  0  0  0  0  0
   -5.4879   -0.0868    1.6499 H   0  0  0  0  0  0  0  0  0  0  0  0
   -5.4520    1.5170    0.9091 H   0  0  0  0  0  0  0  0  0  0  0  0
   -5.3612   -1.7107   -1.0267 H   0  0  0  0  0  0  0  0  0  0  0  0
   -4.3413   -2.0796    0.3776 H   0  0  0  0  0  0  0  0  0  0  0  0
   -3.5983   -1.7625   -1.1932 H   0  0  0  0  0  0  0  0  0  0  0  0
    2.3486   -4.7605   -0.2103 H   0  0  0  0  0  0  0  0  0  0  0  0
    0.5934   -4.7947    0.0605 H   0  0  0  0  0  0  0  0  0  0  0  0
    1.2443   -4.0960   -1.4461 H   0  0  0  0  0  0  0  0  0  0  0  0
  1  9  1  0  0  0  0
  1 11  1  0  0  0  0
  2  8  1  0  0  0  0
  2 28  1  0  0  0  0
  3 10  1  0  0  0  0
  3 29  1  0  0  0  0
  4 14  2  0  0  0  0
  5 16  2  0  0  0  0
  6 13  1  0  0  0  0
  6 16  1  0  0  0  0
  6 30  1  0  0  0  0
  7 14  1  0  0  0  0
  7 15  1  0  0  0  0
  7 31  1  0  0  0  0
  8  9  1  0  0  0  0
  8 10  1  0  0  0  0
  8 20  1  0  0  0  0
  9 12  1  0  0  0  0
  9 21  1  0  0  0  0
 10 11  1  0  0  0  0
 10 22  1  0  0  0  0
 11 13  1  0  0  0  0
 11 23  1  0  0  0  0
 12 14  1  0  0  0  0
 12 24  1  0  0  0  0
 12 25  1  0  0  0  0
 13 26  1  0  0  0  0
 13 27  1  0  0  0  0
 15 17  1  0  0  0  0
 15 18  1  0  0  0  0
 15 32  1  0  0  0  0
 16 19  1  0  0  0  0
 17 33  1  0  0  0  0
 17 34  1  0  0  0  0
 17 35  1  0  0  0  0
 18 36  1  0  0  0  0
 18 37  1  0  0  0  0
 18 38  1  0  0  0  0
 19 39  1  0  0  0  0
 19 40  1  0  0  0  0
 19 41  1  0  0  0  0
M  END
> <PUBCHEM_COMPOUND_CID>
25390428

> <PUBCHEM_CONFORMER_RMSD>
1

> <PUBCHEM_CONFORMER_DIVERSEORDER>
1
69
73
91
28
7
20
15
79
96
92
101
49
78
67
35
41
95
21
68
80
75
24
100
70
3
83
72
54
76
88
19
85
57
26
97
14
40
56
98
37
31
59
4
6
104
62
106
93
16
47
102
89
103
5
11
90
61
27
38
99
53
33
42
45
60
17
2
71
44
32
18
84
86
39
81
30
63
36
66
55
64
94
12
87
51
105
48
77
8
82
74
65
43
58
52
22
13
9
29
10
34
25
50
23
46

> <PUBCHEM_MMFF94_PARTIAL_CHARGES>
21
1 -0.56
10 0.28
11 0.28
12 0.06
13 0.3
14 0.57
15 0.3
16 0.57
19 0.06
2 -0.68
28 0.4
29 0.4
3 -0.68
30 0.37
31 0.37
4 -0.57
5 -0.57
6 -0.73
7 -0.73
8 0.28
9 0.28

> <PUBCHEM_EFFECTIVE_ROTOR_COUNT>
8

> <PUBCHEM_PHARMACOPHORE_FEATURES>
11
1 1 acceptor
1 2 acceptor
1 2 donor
1 3 acceptor
1 3 donor
1 4 acceptor
1 5 acceptor
1 6 donor
1 7 donor
3 15 17 18 hydrophobe
5 1 8 9 10 11 rings

> <PUBCHEM_HEAVY_ATOM_COUNT>
19

> <PUBCHEM_ATOM_DEF_STEREO_COUNT>
4

> <PUBCHEM_ATOM_UDEF_STEREO_COUNT>
0

> <PUBCHEM_BOND_DEF_STEREO_COUNT>
0

> <PUBCHEM_BOND_UDEF_STEREO_COUNT>
0

> <PUBCHEM_ISOTOPIC_ATOM_COUNT>
0

> <PUBCHEM_COMPONENT_COUNT>
1

> <PUBCHEM_CACTVS_TAUTO_COUNT>
4

> <PUBCHEM_CONFORMER_ID>
01836D5C00000001

> <PUBCHEM_MMFF94_ENERGY>
34.004

> <PUBCHEM_FEATURE_SELFOVERLAP>
55.835

> <PUBCHEM_SHAPE_FINGERPRINT>
10064457 181 18194403530915262229
12107183 9 17838627656732228513
12506688 2 18266175032892060291
12553582 1 18268984280864381927
13533116 47 18413388727388926323
13836976 161 18260553350625438180
14178342 30 18123176906107724232
14251705 54 18194397788665832799
14251717 144 18409446977354341731
14863182 85 18411420566778190718
15422964 175 18051120407107147174
17818456 19 17628082187793043921
20291156 8 18052537668826262631
20645477 70 18333729113671280179
21421861 104 18198080092099154945
21673915 165 18194118740862641487
2255824 54 18410294743663606308
23530152 11 18265337394416346966
23559900 14 18408036312794975325
23598291 2 17987257550450930585
238 59 18335990860170443266
3060560 45 18114753745280665220
3323516 105 18333732386431240987
33824 294 18408603690442629259
458136 41 18335994154605453357
59682541 52 18050813743059506055
6443956 14 18192714444958403821
7097593 13 18198346152427612529
7364860 26 18411134714649153979
81228 2 17041740012441377912
8272917 22 18410018719290304213

> <PUBCHEM_SHAPE_MULTIPOLES>
351.7
8.01
4.03
0.98
13.78
3.38
-0.11
0.25
0.08
-4.66
0.24
0.06
-0.25
-0.45

> <PUBCHEM_SHAPE_SELFOVERLAP>
697.54

> <PUBCHEM_SHAPE_VOLUME>
209.8

> <PUBCHEM_COORDINATE_TYPE>
2
5
10

$$$$
