11886195
  -OEChem-12032416373D

 50 54  0     1  0  0  0  0  0999 V2000
    3.4296   -1.1549    1.1081 S   0  0  0  0  0  0  0  0  0  0  0  0
   -0.6429   -3.5292    0.9491 O   0  0  0  0  0  0  0  0  0  0  0  0
   -0.4379   -1.7670   -1.6478 O   0  0  0  0  0  0  0  0  0  0  0  0
   -2.0956    0.5837   -0.6260 O   0  0  0  0  0  0  0  0  0  0  0  0
    4.2579   -2.2515    0.6442 O   0  0  0  0  0  0  0  0  0  0  0  0
    3.7791   -0.4384    2.3197 O   0  0  0  0  0  0  0  0  0  0  0  0
    1.8173   -1.6749    1.2256 N   0  0  0  0  0  0  0  0  0  0  0  0
   -3.3592   -1.3798   -0.2087 N   0  0  0  0  0  0  0  0  0  0  0  0
   -4.6220   -1.6911    0.0980 N   0  0  0  0  0  0  0  0  0  0  0  0
   -4.3886    0.5173   -0.1010 N   0  0  0  0  0  0  0  0  0  0  0  0
   -5.2501   -0.5235    0.1634 N   0  0  0  0  0  0  0  0  0  0  0  0
    1.5817    1.8928    2.2514 N   0  0  0  0  0  0  0  0  0  0  0  0
   -0.1086   -1.5548   -0.2660 C   0  0  1  0  0  0  0  0  0  0  0  0
   -1.1687   -2.2440    0.5708 C   0  0  1  0  0  0  0  0  0  0  0  0
    1.1725   -2.2779    0.0844 C   0  0  2  0  0  0  0  0  0  0  0  0
   -2.3449   -2.4248   -0.3699 C   0  0  2  0  0  0  0  0  0  0  0  0
    0.6774   -3.6753    0.4077 C   0  0  0  0  0  0  0  0  0  0  0  0
   -1.6818   -2.4746   -1.7420 C   0  0  0  0  0  0  0  0  0  0  0  0
   -3.2210   -0.0387   -0.3286 C   0  0  0  0  0  0  0  0  0  0  0  0
    3.3333    0.0422   -0.1889 C   0  0  0  0  0  0  0  0  0  0  0  0
    2.6931    1.2584   -0.0014 C   0  0  0  0  0  0  0  0  0  0  0  0
    3.9212   -0.2776   -1.4049 C   0  0  0  0  0  0  0  0  0  0  0  0
   -1.8087    1.8654   -0.1766 C   0  0  0  0  0  0  0  0  0  0  0  0
    2.6395    2.1749   -1.0516 C   0  0  0  0  0  0  0  0  0  0  0  0
    3.8676    0.6390   -2.4549 C   0  0  0  0  0  0  0  0  0  0  0  0
    3.2267    1.8651   -2.2784 C   0  0  0  0  0  0  0  0  0  0  0  0
    2.0789    1.6090    1.2435 C   0  0  0  0  0  0  0  0  0  0  0  0
   -2.0560    2.1835    1.1449 C   0  0  0  0  0  0  0  0  0  0  0  0
   -1.2848    2.7852   -1.0643 C   0  0  0  0  0  0  0  0  0  0  0  0
   -1.7684    3.4716    1.5961 C   0  0  0  0  0  0  0  0  0  0  0  0
   -0.9972    4.0733   -0.6130 C   0  0  0  0  0  0  0  0  0  0  0  0
   -1.2390    4.4165    0.7174 C   0  0  0  0  0  0  0  0  0  0  0  0
   -0.0334   -0.4803   -0.0947 H   0  0  0  0  0  0  0  0  0  0  0  0
   -1.4028   -1.7055    1.4949 H   0  0  0  0  0  0  0  0  0  0  0  0
    1.8575   -2.3391   -0.7669 H   0  0  0  0  0  0  0  0  0  0  0  0
   -2.8681   -3.3723   -0.1886 H   0  0  0  0  0  0  0  0  0  0  0  0
    0.5937   -4.2845   -0.4991 H   0  0  0  0  0  0  0  0  0  0  0  0
    1.3059   -4.2099    1.1263 H   0  0  0  0  0  0  0  0  0  0  0  0
   -1.4442   -3.5075   -2.0192 H   0  0  0  0  0  0  0  0  0  0  0  0
   -2.2883   -2.0361   -2.5401 H   0  0  0  0  0  0  0  0  0  0  0  0
    1.2308   -1.3668    2.0102 H   0  0  0  0  0  0  0  0  0  0  0  0
    4.4239   -1.2240   -1.5765 H   0  0  0  0  0  0  0  0  0  0  0  0
    2.1462    3.1363   -0.9310 H   0  0  0  0  0  0  0  0  0  0  0  0
    4.3237    0.3977   -3.4106 H   0  0  0  0  0  0  0  0  0  0  0  0
    3.1849    2.5786   -3.0961 H   0  0  0  0  0  0  0  0  0  0  0  0
   -2.4518    1.4557    1.8469 H   0  0  0  0  0  0  0  0  0  0  0  0
   -1.0946    2.5179   -2.0993 H   0  0  0  0  0  0  0  0  0  0  0  0
   -1.9521    3.7376    2.6330 H   0  0  0  0  0  0  0  0  0  0  0  0
   -0.5832    4.8083   -1.2968 H   0  0  0  0  0  0  0  0  0  0  0  0
   -1.0132    5.4188    1.0691 H   0  0  0  0  0  0  0  0  0  0  0  0
  1  5  2  0  0  0  0
  1  6  2  0  0  0  0
  1  7  1  0  0  0  0
  1 20  1  0  0  0  0
  2 14  1  0  0  0  0
  2 17  1  0  0  0  0
  3 13  1  0  0  0  0
  3 18  1  0  0  0  0
  4 19  1  0  0  0  0
  4 23  1  0  0  0  0
  7 15  1  0  0  0  0
  7 41  1  0  0  0  0
  8  9  1  0  0  0  0
  8 16  1  0  0  0  0
  8 19  1  0  0  0  0
  9 11  2  0  0  0  0
 10 11  1  0  0  0  0
 10 19  2  0  0  0  0
 12 27  3  0  0  0  0
 13 14  1  0  0  0  0
 13 15  1  0  0  0  0
 13 33  1  0  0  0  0
 14 16  1  0  0  0  0
 14 34  1  0  0  0  0
 15 17  1  0  0  0  0
 15 35  1  0  0  0  0
 16 18  1  0  0  0  0
 16 36  1  0  0  0  0
 17 37  1  0  0  0  0
 17 38  1  0  0  0  0
 18 39  1  0  0  0  0
 18 40  1  0  0  0  0
 20 21  1  0  0  0  0
 20 22  2  0  0  0  0
 21 24  2  0  0  0  0
 21 27  1  0  0  0  0
 22 25  1  0  0  0  0
 22 42  1  0  0  0  0
 23 28  2  0  0  0  0
 23 29  1  0  0  0  0
 24 26  1  0  0  0  0
 24 43  1  0  0  0  0
 25 26  2  0  0  0  0
 25 44  1  0  0  0  0
 26 45  1  0  0  0  0
 28 30  1  0  0  0  0
 28 46  1  0  0  0  0
 29 31  2  0  0  0  0
 29 47  1  0  0  0  0
 30 32  2  0  0  0  0
 30 48  1  0  0  0  0
 31 32  1  0  0  0  0
 31 49  1  0  0  0  0
 32 50  1  0  0  0  0
M  END
> <PUBCHEM_COMPOUND_CID>
11886195

> <PUBCHEM_CONFORMER_RMSD>
1

> <PUBCHEM_CONFORMER_DIVERSEORDER>
1
225
236
74
339
196
58
399
395
370
355
53
281
256
7
93
26
320
204
367
65
158
194
202
98
152
84
275
43
42
268
170
14
81
218
174
61
217
402
278
38
199
73
400
304
390
150
290
344
117
356
3
373
314
177
280
103
409
325
80
77
36
328
295
82
307
302
222
255
329
97
324
60
190
229
380
252
352
40
37
351
169
333
90
21
240
63
237
261
126
35
107
310
319
195
408
258
140
247
129
165
99
334
113
146
391
337
384
216
263
167
253
354
392
17
5
327
349
191
47
322
372
203
318
134
49
28
282
245
161
68
41
303
44
46
377
271
300
292
346
151
299
309
326
335
287
286
228
306
270
212
269
85
279
359
166
369
187
224
223
206
112
108
379
75
52
197
56
214
179
70
153
193
298
122
396
363
62
276
371
87
198
201
104
220
39
404
338
141
69
149
365
266
186
388
9
121
378
407
182
209
364
386
406
381
173
360
101
24
219
205
145
20
83
376
234
398
159
405
86
78
262
316
119
135
284
148
88
96
242
139
64
45
133
89
175
347
130
12
13
394
288
116
345
207
383
353
315
105
257
91
19
401
32
283
164
109
317
361
76
31
343
350
368
55
235
18
131
138
393
330
239
102
114
29
163
189
243
336
123
397
22
128
51
362
67
332
110
312
210
273
192
294
16
57
267
250
72
231
147
180
4
92
79
233
249
33
2
137
136
403
244
375
184
366
111
259
168
389
241
188
221
291
120
305
265
125
308
251
348
387
272
208
71
115
176
48
260
178
11
172
313
238
30
160
154
127
59
289
246
226
341
144
185
183
34
248
385
15
296
132
66
340
27
254
297
277
232
293
200
8
264
323
100
211
342
311
374
50
331
118
54
321
230
95
274
124
358
171
142
162
23
157
156
382
357
213
301
143
94
25
155
106
227
6
215
10
285
181

> <PUBCHEM_MMFF94_PARTIAL_CHARGES>
41
1 1.45
10 -0.34
12 -0.56
13 0.28
14 0.28
15 0.36
16 0.26
17 0.28
18 0.28
19 0.25
2 -0.56
20 -0.01
21 0.07
22 -0.15
23 0.08
24 -0.15
25 -0.15
26 -0.15
27 0.48
28 -0.15
29 -0.15
3 -0.56
30 -0.15
31 -0.15
32 -0.15
4 -0.15
41 0.42
42 0.15
43 0.15
44 0.15
45 0.15
46 0.15
47 0.15
48 0.15
49 0.15
5 -0.65
50 0.15
6 -0.65
7 -0.91
8 0.31
9 -0.42

> <PUBCHEM_EFFECTIVE_ROTOR_COUNT>
7.2

> <PUBCHEM_PHARMACOPHORE_FEATURES>
12
1 12 acceptor
1 2 acceptor
1 3 acceptor
1 5 acceptor
1 6 acceptor
1 7 donor
3 8 10 19 cation
5 2 13 14 15 17 rings
5 3 13 14 16 18 rings
5 8 9 10 11 19 rings
6 20 21 22 24 25 26 rings
6 23 28 29 30 31 32 rings

> <PUBCHEM_HEAVY_ATOM_COUNT>
32

> <PUBCHEM_ATOM_DEF_STEREO_COUNT>
4

> <PUBCHEM_ATOM_UDEF_STEREO_COUNT>
0

> <PUBCHEM_BOND_DEF_STEREO_COUNT>
0

> <PUBCHEM_BOND_UDEF_STEREO_COUNT>
0

> <PUBCHEM_ISOTOPIC_ATOM_COUNT>
0

> <PUBCHEM_COMPONENT_COUNT>
1

> <PUBCHEM_CACTVS_TAUTO_COUNT>
1

> <PUBCHEM_CONFORMER_ID>
00B55E7300000001

> <PUBCHEM_MMFF94_ENERGY>
68.2476

> <PUBCHEM_FEATURE_SELFOVERLAP>
61.609

> <PUBCHEM_SHAPE_FINGERPRINT>
10670039 82 18339371751521164094
1100329 8 18050292758435408917
12156800 1 11449145542737851536
12788726 201 18339374031837737052
13122387 1 17762051047495452056
13140716 1 18339629148563319931
14117953 113 17975128747796575797
14178342 30 18122898733823772344
14787075 74 18115307899310154667
14840074 17 18266486277025935489
14955137 171 18054252053000168587
15210252 30 18045225100610896588
15927050 60 17403463369644924119
20600515 1 17904471158325567108
20715895 44 17825932738285421917
20764821 26 18268693077844449904
20905425 154 18198346160690480295
338550 245 18193281792890011481
350125 39 18337108951842403280
35225 105 18411412899728603732
392239 28 18260559909362928659
469060 322 18409738335261778209
5895379 119 18340212882533029238
6287921 2 17980210690397464687

> <PUBCHEM_SHAPE_MULTIPOLES>
603.16
7.83
5.38
1.92
0.9
2.15
0.12
-1.22
0.89
2.65
-0.78
-2.08
0.65
-1.76

> <PUBCHEM_SHAPE_SELFOVERLAP>
1313.626

> <PUBCHEM_SHAPE_VOLUME>
328.4

> <PUBCHEM_COORDINATE_TYPE>
2
5
10

$$$$
