75536875
  -OEChem-12032416333D

 44 46  0     1  0  0  0  0  0999 V2000
    6.3057   -1.2546   -0.3494 F   0  0  0  0  0  0  0  0  0  0  0  0
    5.5209   -1.4168    1.6660 F   0  0  0  0  0  0  0  0  0  0  0  0
    6.1513    0.5182    0.9002 F   0  0  0  0  0  0  0  0  0  0  0  0
   -1.4343    3.2983   -0.1805 O   0  0  0  0  0  0  0  0  0  0  0  0
   -5.1420    0.3972    1.1829 O   0  0  0  0  0  0  0  0  0  0  0  0
    0.2867    0.3627   -1.3987 O   0  0  0  0  0  0  0  0  0  0  0  0
   -2.9253    0.6095    0.5078 N   0  0  0  0  0  0  0  0  0  0  0  0
   -4.3126   -1.3185   -0.2931 C   0  0  0  0  0  0  0  0  0  0  0  0
   -5.6017   -2.1600   -0.1044 C   0  0  0  0  0  0  0  0  0  0  0  0
   -3.5344   -2.5717    0.1873 C   0  0  0  0  0  0  0  0  0  0  0  0
   -4.7313   -3.4177   -0.2866 C   0  0  0  0  0  0  0  0  0  0  0  0
   -4.1803   -0.0336    0.5291 C   0  0  0  0  0  0  0  0  0  0  0  0
   -1.7961    0.0774   -0.2581 C   0  0  0  0  0  0  0  0  0  0  0  0
   -2.7362    1.8369    1.2849 C   0  0  0  0  0  0  0  0  0  0  0  0
   -0.6154    1.0197   -0.5067 C   0  0  2  0  0  0  0  0  0  0  0  0
   -2.7201    3.0644    0.3838 C   0  0  0  0  0  0  0  0  0  0  0  0
   -1.0285    2.3400   -1.1516 C   0  0  0  0  0  0  0  0  0  0  0  0
    1.5471    0.1233   -0.9257 C   0  0  0  0  0  0  0  0  0  0  0  0
    2.3555    1.1872   -0.5250 C   0  0  0  0  0  0  0  0  0  0  0  0
    2.0250   -1.1847   -0.8450 C   0  0  0  0  0  0  0  0  0  0  0  0
    3.6415    0.9430   -0.0434 C   0  0  0  0  0  0  0  0  0  0  0  0
    3.3111   -1.4288   -0.3634 C   0  0  0  0  0  0  0  0  0  0  0  0
    4.1193   -0.3649    0.0375 C   0  0  0  0  0  0  0  0  0  0  0  0
    5.4942   -0.6265    0.5522 C   0  0  0  0  0  0  0  0  0  0  0  0
   -4.1625   -1.1166   -1.3645 H   0  0  0  0  0  0  0  0  0  0  0  0
   -6.3783   -2.0143   -0.8601 H   0  0  0  0  0  0  0  0  0  0  0  0
   -6.0575   -2.0886    0.8901 H   0  0  0  0  0  0  0  0  0  0  0  0
   -3.3653   -2.6110    1.2697 H   0  0  0  0  0  0  0  0  0  0  0  0
   -2.5951   -2.7862   -0.3288 H   0  0  0  0  0  0  0  0  0  0  0  0
   -4.9900   -4.2720    0.3436 H   0  0  0  0  0  0  0  0  0  0  0  0
   -4.6509   -3.7510   -1.3276 H   0  0  0  0  0  0  0  0  0  0  0  0
   -2.1579   -0.2959   -1.2221 H   0  0  0  0  0  0  0  0  0  0  0  0
   -1.4263   -0.7997    0.2862 H   0  0  0  0  0  0  0  0  0  0  0  0
   -3.5638    1.9396    1.9944 H   0  0  0  0  0  0  0  0  0  0  0  0
   -1.8178    1.7413    1.8735 H   0  0  0  0  0  0  0  0  0  0  0  0
   -0.1346    1.2250    0.4596 H   0  0  0  0  0  0  0  0  0  0  0  0
   -0.1741    2.7786   -1.6792 H   0  0  0  0  0  0  0  0  0  0  0  0
   -1.8102    2.2021   -1.9089 H   0  0  0  0  0  0  0  0  0  0  0  0
   -3.4766    3.0124   -0.4081 H   0  0  0  0  0  0  0  0  0  0  0  0
   -2.9455    3.9467    0.9923 H   0  0  0  0  0  0  0  0  0  0  0  0
    2.0025    2.2125   -0.5896 H   0  0  0  0  0  0  0  0  0  0  0  0
    1.3993   -2.0171   -1.1553 H   0  0  0  0  0  0  0  0  0  0  0  0
    4.2558    1.7856    0.2618 H   0  0  0  0  0  0  0  0  0  0  0  0
    3.6746   -2.4513   -0.3040 H   0  0  0  0  0  0  0  0  0  0  0  0
  1 24  1  0  0  0  0
  2 24  1  0  0  0  0
  3 24  1  0  0  0  0
  4 16  1  0  0  0  0
  4 17  1  0  0  0  0
  5 12  2  0  0  0  0
  6 15  1  0  0  0  0
  6 18  1  0  0  0  0
  7 12  1  0  0  0  0
  7 13  1  0  0  0  0
  7 14  1  0  0  0  0
  8  9  1  0  0  0  0
  8 10  1  0  0  0  0
  8 12  1  0  0  0  0
  8 25  1  0  0  0  0
  9 11  1  0  0  0  0
  9 26  1  0  0  0  0
  9 27  1  0  0  0  0
 10 11  1  0  0  0  0
 10 28  1  0  0  0  0
 10 29  1  0  0  0  0
 11 30  1  0  0  0  0
 11 31  1  0  0  0  0
 13 15  1  0  0  0  0
 13 32  1  0  0  0  0
 13 33  1  0  0  0  0
 14 16  1  0  0  0  0
 14 34  1  0  0  0  0
 14 35  1  0  0  0  0
 15 17  1  0  0  0  0
 15 36  1  0  0  0  0
 16 39  1  0  0  0  0
 16 40  1  0  0  0  0
 17 37  1  0  0  0  0
 17 38  1  0  0  0  0
 18 19  2  0  0  0  0
 18 20  1  0  0  0  0
 19 21  1  0  0  0  0
 19 41  1  0  0  0  0
 20 22  2  0  0  0  0
 20 42  1  0  0  0  0
 21 23  2  0  0  0  0
 21 43  1  0  0  0  0
 22 23  1  0  0  0  0
 22 44  1  0  0  0  0
 23 24  1  0  0  0  0
M  END
> <PUBCHEM_COMPOUND_CID>
75536875

> <PUBCHEM_CONFORMER_RMSD>
0.8

> <PUBCHEM_CONFORMER_DIVERSEORDER>
1
134
103
46
28
114
18
11
82
107
56
131
53
68
127
39
125
98
45
94
72
116
129
34
143
3
41
121
88
52
126
112
137
30
24
61
113
111
48
36
147
135
102
50
77
149
37
73
55
132
99
16
138
92
58
26
93
130
5
17
70
115
10
146
2
64
104
105
62
14
69
90
145
80
87
123
12
106
86
22
9
79
47
95
33
144
7
31
108
117
140
128
65
4
96
63
44
91
21
19
109
119
60
67
6
59
13
136
84
75
142
57
15
27
81
118
89
133
83
40
78
141
101
25
23
66
74
124
71
51
54
20
35
32
122
8
139
100
29
148
76
43
97
110
85
42
49
38
120

> <PUBCHEM_MMFF94_PARTIAL_CHARGES>
25
1 -0.34
12 0.58
13 0.3
14 0.3
15 0.28
16 0.28
17 0.28
18 0.08
19 -0.15
2 -0.34
20 -0.15
21 -0.15
22 -0.15
23 -0.14
24 1.16
3 -0.34
4 -0.56
41 0.15
42 0.15
43 0.15
44 0.15
5 -0.57
6 -0.36
7 -0.66
8 0.05

> <PUBCHEM_EFFECTIVE_ROTOR_COUNT>
7.2

> <PUBCHEM_PHARMACOPHORE_FEATURES>
6
1 4 acceptor
1 5 acceptor
1 6 acceptor
4 8 9 10 11 rings
6 18 19 20 21 22 23 rings
7 4 7 13 14 15 16 17 rings

> <PUBCHEM_HEAVY_ATOM_COUNT>
24

> <PUBCHEM_ATOM_DEF_STEREO_COUNT>
1

> <PUBCHEM_ATOM_UDEF_STEREO_COUNT>
0

> <PUBCHEM_BOND_DEF_STEREO_COUNT>
0

> <PUBCHEM_BOND_UDEF_STEREO_COUNT>
0

> <PUBCHEM_ISOTOPIC_ATOM_COUNT>
0

> <PUBCHEM_COMPONENT_COUNT>
1

> <PUBCHEM_CACTVS_TAUTO_COUNT>
1

> <PUBCHEM_CONFORMER_ID>
048099EB00000001

> <PUBCHEM_MMFF94_ENERGY>
66.6487

> <PUBCHEM_FEATURE_SELFOVERLAP>
30.448

> <PUBCHEM_SHAPE_FINGERPRINT>
11265709 11 18338241569716361463
11552529 35 18341333284206785489
11963148 33 16901864009102061975
12166972 35 17749670821919680151
12523318 42 18342737395141716025
12553582 1 18195275371407712647
12596602 18 18343580738104041176
12616971 3 17967824863819886821
12633257 1 18201733837699567537
128238 76 18341054137439732340
12839892 36 18343018882745437366
13004483 165 18340764957333896927
13583140 156 17774712074218598160
14178342 30 18339368452521927124
14257110 125 9583250431170018155
14341114 176 18342463599635212528
14844126 61 18411140243047615275
14955137 171 17846503617362015180
15183329 4 8214153949309278800
15188451 53 18409157831423608970
15352361 1 18339082708949377031
15415430 10 18338800117212331319
17349148 13 17822016423152021782
17780758 139 18413387640124059291
17857418 61 18334011704965240226
17913733 40 16200434645990338974
18222031 100 17530682117807720820
18927931 339 18408895022722842055
19377110 9 18334297591559218252
200 152 17095244704675014580
20028762 73 18410008871089446566
20621476 91 18337096947772808240
20871999 31 8286197232347475381
21673915 165 18410857646362071734
21756936 100 11672061956261596799
22122407 14 15554451782168137819
23402539 116 18408884049049622319
23522609 53 17971223377448492404
23559900 14 18341043129512886241
23569914 152 12543740400024049402
312425 54 17987810613300004603
339767 52 18411415137949980735
392239 28 17774730852158326403
4409770 3 18189046517999408357
5104073 3 18201165463513389057
559249 180 18334857230330185447
5924683 9 18410292484679392785
67856867 119 18337394962389565844
8863177 126 18270970021067281310
9953998 17 18273211980513986858

> <PUBCHEM_SHAPE_MULTIPOLES>
449.5
14.4
3.37
1.1
11.8
0.62
0.11
-10.16
4.39
-5.07
-0.08
0.37
0.18
-0.99

> <PUBCHEM_SHAPE_SELFOVERLAP>
945.475

> <PUBCHEM_SHAPE_VOLUME>
253.4

> <PUBCHEM_COORDINATE_TYPE>
2
5
10

$$$$
