45783563
  -OEChem-12032416263D

 53 56  0     1  0  0  0  0  0999 V2000
   -4.0243   -3.6058   -0.3900 O   0  0  0  0  0  0  0  0  0  0  0  0
   -1.6984    1.8975   -1.7377 O   0  0  0  0  0  0  0  0  0  0  0  0
    5.1431   -0.6245    0.3490 O   0  0  0  0  0  0  0  0  0  0  0  0
    7.8242   -0.1563    1.0027 O   0  0  0  0  0  0  0  0  0  0  0  0
   -3.9530    0.4298    0.7659 N   0  0  1  0  0  0  0  0  0  0  0  0
   -1.0649    0.8324    0.1279 N   0  0  0  0  0  0  0  0  0  0  0  0
   -0.3235    1.6649   -1.8699 N   0  0  0  0  0  0  0  0  0  0  0  0
    3.6265    0.4092   -1.0705 N   0  0  0  0  0  0  0  0  0  0  0  0
   -4.3720   -0.7853    0.0713 C   0  0  0  0  0  0  0  0  0  0  0  0
   -3.5136    1.5015   -0.1499 C   0  0  1  0  0  0  0  0  0  0  0  0
   -5.0281    0.9968    1.5801 C   0  0  0  0  0  0  0  0  0  0  0  0
   -3.8204    2.8094    0.6030 C   0  0  0  0  0  0  0  0  0  0  0  0
   -4.4848    2.3744    1.9014 C   0  0  0  0  0  0  0  0  0  0  0  0
   -4.8612   -1.8459    1.0625 C   0  0  0  0  0  0  0  0  0  0  0  0
   -3.2188   -1.3440   -0.7671 C   0  0  0  0  0  0  0  0  0  0  0  0
   -5.1670   -3.1504    0.3346 C   0  0  0  0  0  0  0  0  0  0  0  0
   -3.6156   -2.6762   -1.3935 C   0  0  0  0  0  0  0  0  0  0  0  0
   -2.0542    1.3767   -0.5343 C   0  0  0  0  0  0  0  0  0  0  0  0
   -0.0238    1.0332   -0.7310 C   0  0  0  0  0  0  0  0  0  0  0  0
    1.3051    0.5915   -0.4204 C   0  0  0  0  0  0  0  0  0  0  0  0
    1.5811   -0.0616    0.7758 C   0  0  0  0  0  0  0  0  0  0  0  0
    2.3533    0.8008   -1.3019 C   0  0  0  0  0  0  0  0  0  0  0  0
    2.8788   -0.4795    1.0498 C   0  0  0  0  0  0  0  0  0  0  0  0
    3.8566   -0.2225    0.1024 C   0  0  0  0  0  0  0  0  0  0  0  0
    6.1076   -0.3357   -0.6563 C   0  0  0  0  0  0  0  0  0  0  0  0
    7.4652   -0.8316   -0.1966 C   0  0  0  0  0  0  0  0  0  0  0  0
    9.0822   -0.5989    1.4928 C   0  0  0  0  0  0  0  0  0  0  0  0
   -5.2048   -0.5539   -0.6091 H   0  0  0  0  0  0  0  0  0  0  0  0
   -4.1187    1.4992   -1.0678 H   0  0  0  0  0  0  0  0  0  0  0  0
   -5.2048    0.4392    2.5048 H   0  0  0  0  0  0  0  0  0  0  0  0
   -5.9691    1.0817    1.0219 H   0  0  0  0  0  0  0  0  0  0  0  0
   -4.5220    3.4159    0.0173 H   0  0  0  0  0  0  0  0  0  0  0  0
   -2.9349    3.4217    0.8052 H   0  0  0  0  0  0  0  0  0  0  0  0
   -3.7359    2.3144    2.7010 H   0  0  0  0  0  0  0  0  0  0  0  0
   -5.2666    3.0706    2.2191 H   0  0  0  0  0  0  0  0  0  0  0  0
   -5.7669   -1.5283    1.5897 H   0  0  0  0  0  0  0  0  0  0  0  0
   -4.0824   -2.0330    1.8136 H   0  0  0  0  0  0  0  0  0  0  0  0
   -2.3399   -1.5123   -0.1326 H   0  0  0  0  0  0  0  0  0  0  0  0
   -2.9466   -0.6860   -1.5959 H   0  0  0  0  0  0  0  0  0  0  0  0
   -5.4330   -3.9270    1.0588 H   0  0  0  0  0  0  0  0  0  0  0  0
   -6.0131   -3.0354   -0.3532 H   0  0  0  0  0  0  0  0  0  0  0  0
   -4.4237   -2.5501   -2.1238 H   0  0  0  0  0  0  0  0  0  0  0  0
   -2.7595   -3.1101   -1.9201 H   0  0  0  0  0  0  0  0  0  0  0  0
    0.8059   -0.2586    1.5118 H   0  0  0  0  0  0  0  0  0  0  0  0
    2.2220    1.3023   -2.2561 H   0  0  0  0  0  0  0  0  0  0  0  0
    3.1109   -0.9903    1.9779 H   0  0  0  0  0  0  0  0  0  0  0  0
    6.1580    0.7493   -0.8113 H   0  0  0  0  0  0  0  0  0  0  0  0
    5.8391   -0.8352   -1.5947 H   0  0  0  0  0  0  0  0  0  0  0  0
    7.4176   -1.9084    0.0030 H   0  0  0  0  0  0  0  0  0  0  0  0
    8.2161   -0.6385   -0.9707 H   0  0  0  0  0  0  0  0  0  0  0  0
    9.0479   -1.6668    1.7294 H   0  0  0  0  0  0  0  0  0  0  0  0
    9.8709   -0.3998    0.7608 H   0  0  0  0  0  0  0  0  0  0  0  0
    9.3086   -0.0462    2.4085 H   0  0  0  0  0  0  0  0  0  0  0  0
  1 16  1  0  0  0  0
  1 17  1  0  0  0  0
  2  7  1  0  0  0  0
  2 18  1  0  0  0  0
  3 24  1  0  0  0  0
  3 25  1  0  0  0  0
  4 26  1  0  0  0  0
  4 27  1  0  0  0  0
  5  9  1  0  0  0  0
  5 10  1  0  0  0  0
  5 11  1  0  0  0  0
  6 18  2  0  0  0  0
  6 19  1  0  0  0  0
  7 19  2  0  0  0  0
  8 22  1  0  0  0  0
  8 24  2  0  0  0  0
  9 14  1  0  0  0  0
  9 15  1  0  0  0  0
  9 28  1  0  0  0  0
 10 12  1  0  0  0  0
 10 18  1  0  0  0  0
 10 29  1  0  0  0  0
 11 13  1  0  0  0  0
 11 30  1  0  0  0  0
 11 31  1  0  0  0  0
 12 13  1  0  0  0  0
 12 32  1  0  0  0  0
 12 33  1  0  0  0  0
 13 34  1  0  0  0  0
 13 35  1  0  0  0  0
 14 16  1  0  0  0  0
 14 36  1  0  0  0  0
 14 37  1  0  0  0  0
 15 17  1  0  0  0  0
 15 38  1  0  0  0  0
 15 39  1  0  0  0  0
 16 40  1  0  0  0  0
 16 41  1  0  0  0  0
 17 42  1  0  0  0  0
 17 43  1  0  0  0  0
 19 20  1  0  0  0  0
 20 21  1  0  0  0  0
 20 22  2  0  0  0  0
 21 23  2  0  0  0  0
 21 44  1  0  0  0  0
 22 45  1  0  0  0  0
 23 24  1  0  0  0  0
 23 46  1  0  0  0  0
 25 26  1  0  0  0  0
 25 47  1  0  0  0  0
 25 48  1  0  0  0  0
 26 49  1  0  0  0  0
 26 50  1  0  0  0  0
 27 51  1  0  0  0  0
 27 52  1  0  0  0  0
 27 53  1  0  0  0  0
M  END
> <PUBCHEM_COMPOUND_CID>
45783563

> <PUBCHEM_CONFORMER_RMSD>
1

> <PUBCHEM_CONFORMER_DIVERSEORDER>
1
39
57
22
42
33
5
46
41
47
32
13
27
45
12
51
25
48
3
54
50
56
31
26
20
18
36
29
28
11
53
9
38
19
43
37
14
15
55
58
30
23
24
21
6
44
17
40
4
35
2
10
52
34
49
8
16
7

> <PUBCHEM_MMFF94_PARTIAL_CHARGES>
26
1 -0.56
10 0.45
11 0.27
16 0.28
17 0.28
18 0.3
19 0.46
2 -0.02
20 0.05
21 -0.15
22 0.16
23 -0.15
24 0.39
25 0.28
26 0.28
27 0.28
3 -0.36
4 -0.56
44 0.15
45 0.15
46 0.15
5 -0.81
6 -0.57
7 -0.41
8 -0.62
9 0.27

> <PUBCHEM_EFFECTIVE_ROTOR_COUNT>
9.2

> <PUBCHEM_PHARMACOPHORE_FEATURES>
8
1 1 acceptor
1 4 acceptor
1 5 cation
3 6 7 19 cation
5 2 6 7 18 19 rings
5 5 10 11 12 13 rings
6 1 9 14 15 16 17 rings
6 8 20 21 22 23 24 rings

> <PUBCHEM_HEAVY_ATOM_COUNT>
27

> <PUBCHEM_ATOM_DEF_STEREO_COUNT>
1

> <PUBCHEM_ATOM_UDEF_STEREO_COUNT>
0

> <PUBCHEM_BOND_DEF_STEREO_COUNT>
0

> <PUBCHEM_BOND_UDEF_STEREO_COUNT>
0

> <PUBCHEM_ISOTOPIC_ATOM_COUNT>
0

> <PUBCHEM_COMPONENT_COUNT>
1

> <PUBCHEM_CACTVS_TAUTO_COUNT>
1

> <PUBCHEM_CONFORMER_ID>
02BA9A0B00000001

> <PUBCHEM_MMFF94_ENERGY>
55.3284

> <PUBCHEM_FEATURE_SELFOVERLAP>
40.598

> <PUBCHEM_SHAPE_FINGERPRINT>
10319926 262 18131071541265740272
11089746 13 10663810863560113278
11135926 11 15719390603766834120
11315181 36 18412262835312804745
11545043 162 17989205953711100546
11552529 35 18272367594634179467
12616971 3 17895487972253674716
12633257 1 16844181219694686763
13009979 54 18265061400160719485
13583140 156 17060338509323175047
13782708 43 18260540122664158810
14705955 166 17059794243052693827
14844126 61 18343305898984125883
14849402 71 18336833104334303308
14856354 85 18272937111123494684
15021287 119 17749115486853454484
15183329 4 17385724703967900498
15326921 28 17978509737209649873
15348495 7 18060418023755856560
15352257 5 18272093747805009710
15537594 2 18040439854028275259
17093844 174 17989201521310288168
1754908 1 18340753885768220650
17780758 139 18342739615740067081
18927931 339 17095531655866922333
21095123 145 18130784599565652174
21130935 74 18411134702872424554
21315759 148 17988650683649931790
22956985 138 17910670196577877129
23081809 10 17967822656686829228
23402539 116 17168146710979822820
23522609 53 17971224523941224308
23523787 8 17830690406982646007
23559900 14 18269548507145965049
312425 54 18343023246832669010
397830 11 18059004095058034984
4073 2 18059859429031168062
4169191 19 13182727174827647970
484985 159 18336258016602252823
4938544 92 18343302522601838913
5104073 3 18272652385236478904
5364581 5 17988636467029075384
5486654 36 18409737296064178385
58260988 114 17386306388705479899
6009941 240 17845939528698701504
602551 16 18272658960540868903
6691757 9 18271531910432266553
68570916 9 18410575124325684516
7970288 3 18192433193758875307
9953998 17 18343582927915103472

> <PUBCHEM_SHAPE_MULTIPOLES>
512.25
19.75
3.01
1.57
49.07
1.73
0.02
7.76
-9.07
-8.25
0.08
-0.2
-0.49
-1.59

> <PUBCHEM_SHAPE_SELFOVERLAP>
1084.868

> <PUBCHEM_SHAPE_VOLUME>
287.4

> <PUBCHEM_COORDINATE_TYPE>
2
5
10

$$$$
