45783818
  -OEChem-12032416263D

 52 55  0     1  0  0  0  0  0999 V2000
    2.2441    2.5364    0.0693 F   0  0  0  0  0  0  0  0  0  0  0  0
    1.3478    3.9699    1.4367 F   0  0  0  0  0  0  0  0  0  0  0  0
    1.4497    4.4057   -0.6910 F   0  0  0  0  0  0  0  0  0  0  0  0
   -1.8238   -1.6528    2.0366 O   0  0  0  0  0  0  0  0  0  0  0  0
   -3.8595   -0.5058   -0.7998 N   0  0  1  0  0  0  0  0  0  0  0  0
   -1.0869   -1.3214   -0.0524 N   0  0  0  0  0  0  0  0  0  0  0  0
   -0.4254   -1.6927    2.1060 N   0  0  0  0  0  0  0  0  0  0  0  0
    3.6486   -1.5945    1.0080 N   0  0  0  0  0  0  0  0  0  0  0  0
    5.3003   -1.3496   -0.6911 N   0  0  0  0  0  0  0  0  0  0  0  0
   -3.6021   -1.3431    0.3889 C   0  0  1  0  0  0  0  0  0  0  0  0
   -4.2142   -2.7129    0.0425 C   0  0  0  0  0  0  0  0  0  0  0  0
   -4.8445   -2.5310   -1.3310 C   0  0  0  0  0  0  0  0  0  0  0  0
   -5.0720   -1.0358   -1.4240 C   0  0  0  0  0  0  0  0  0  0  0  0
   -3.9784    0.9128   -0.4884 C   0  0  0  0  0  0  0  0  0  0  0  0
   -2.1296   -1.4306    0.7315 C   0  0  0  0  0  0  0  0  0  0  0  0
   -2.6319    1.5622   -0.3092 C   0  0  0  0  0  0  0  0  0  0  0  0
   -2.3154    2.1900    0.8956 C   0  0  0  0  0  0  0  0  0  0  0  0
   -1.7005    1.5354   -1.3473 C   0  0  0  0  0  0  0  0  0  0  0  0
   -0.0644   -1.4892    0.8355 C   0  0  0  0  0  0  0  0  0  0  0  0
   -1.0680    2.7913    1.0622 C   0  0  0  0  0  0  0  0  0  0  0  0
   -0.4530    2.1367   -1.1807 C   0  0  0  0  0  0  0  0  0  0  0  0
   -0.1368    2.7645    0.0240 C   0  0  0  0  0  0  0  0  0  0  0  0
    1.3080   -1.4494    0.4202 C   0  0  0  0  0  0  0  0  0  0  0  0
    1.1982    3.4046    0.2035 C   0  0  0  0  0  0  0  0  0  0  0  0
    1.6479   -1.2368   -0.9112 C   0  0  0  0  0  0  0  0  0  0  0  0
    2.3364   -1.6209    1.3327 C   0  0  0  0  0  0  0  0  0  0  0  0
    2.9871   -1.2030   -1.2842 C   0  0  0  0  0  0  0  0  0  0  0  0
    3.9405   -1.3856   -0.2954 C   0  0  0  0  0  0  0  0  0  0  0  0
    6.3485   -1.5251    0.2898 C   0  0  0  0  0  0  0  0  0  0  0  0
    5.6491   -1.1295   -2.0772 C   0  0  0  0  0  0  0  0  0  0  0  0
   -4.1390   -0.9515    1.2644 H   0  0  0  0  0  0  0  0  0  0  0  0
   -4.9932   -2.9638    0.7728 H   0  0  0  0  0  0  0  0  0  0  0  0
   -3.4875   -3.5325    0.0316 H   0  0  0  0  0  0  0  0  0  0  0  0
   -5.7698   -3.1041   -1.4408 H   0  0  0  0  0  0  0  0  0  0  0  0
   -4.1445   -2.8607   -2.1088 H   0  0  0  0  0  0  0  0  0  0  0  0
   -5.1778   -0.7090   -2.4630 H   0  0  0  0  0  0  0  0  0  0  0  0
   -5.9740   -0.7528   -0.8665 H   0  0  0  0  0  0  0  0  0  0  0  0
   -4.4595    1.4391   -1.3249 H   0  0  0  0  0  0  0  0  0  0  0  0
   -4.6281    1.0856    0.3796 H   0  0  0  0  0  0  0  0  0  0  0  0
   -3.0304    2.2164    1.7135 H   0  0  0  0  0  0  0  0  0  0  0  0
   -1.9336    1.0536   -2.2932 H   0  0  0  0  0  0  0  0  0  0  0  0
   -0.8408    3.2737    2.0087 H   0  0  0  0  0  0  0  0  0  0  0  0
    0.2665    2.1097   -1.9947 H   0  0  0  0  0  0  0  0  0  0  0  0
    0.8906   -1.0944   -1.6779 H   0  0  0  0  0  0  0  0  0  0  0  0
    2.1562   -1.7911    2.3900 H   0  0  0  0  0  0  0  0  0  0  0  0
    3.2079   -1.0344   -2.3311 H   0  0  0  0  0  0  0  0  0  0  0  0
    6.2988   -0.7417    1.0542 H   0  0  0  0  0  0  0  0  0  0  0  0
    6.2611   -2.5009    0.7802 H   0  0  0  0  0  0  0  0  0  0  0  0
    7.3463   -1.4769   -0.1591 H   0  0  0  0  0  0  0  0  0  0  0  0
    5.2558   -1.9241   -2.7213 H   0  0  0  0  0  0  0  0  0  0  0  0
    5.2964   -0.1535   -2.4296 H   0  0  0  0  0  0  0  0  0  0  0  0
    6.7358   -1.1309   -2.2214 H   0  0  0  0  0  0  0  0  0  0  0  0
  1 24  1  0  0  0  0
  2 24  1  0  0  0  0
  3 24  1  0  0  0  0
  4  7  1  0  0  0  0
  4 15  1  0  0  0  0
  5 10  1  0  0  0  0
  5 13  1  0  0  0  0
  5 14  1  0  0  0  0
  6 15  2  0  0  0  0
  6 19  1  0  0  0  0
  7 19  2  0  0  0  0
  8 26  1  0  0  0  0
  8 28  2  0  0  0  0
  9 28  1  0  0  0  0
  9 29  1  0  0  0  0
  9 30  1  0  0  0  0
 10 11  1  0  0  0  0
 10 15  1  0  0  0  0
 10 31  1  0  0  0  0
 11 12  1  0  0  0  0
 11 32  1  0  0  0  0
 11 33  1  0  0  0  0
 12 13  1  0  0  0  0
 12 34  1  0  0  0  0
 12 35  1  0  0  0  0
 13 36  1  0  0  0  0
 13 37  1  0  0  0  0
 14 16  1  0  0  0  0
 14 38  1  0  0  0  0
 14 39  1  0  0  0  0
 16 17  2  0  0  0  0
 16 18  1  0  0  0  0
 17 20  1  0  0  0  0
 17 40  1  0  0  0  0
 18 21  2  0  0  0  0
 18 41  1  0  0  0  0
 19 23  1  0  0  0  0
 20 22  2  0  0  0  0
 20 42  1  0  0  0  0
 21 22  1  0  0  0  0
 21 43  1  0  0  0  0
 22 24  1  0  0  0  0
 23 25  1  0  0  0  0
 23 26  2  0  0  0  0
 25 27  2  0  0  0  0
 25 44  1  0  0  0  0
 26 45  1  0  0  0  0
 27 28  1  0  0  0  0
 27 46  1  0  0  0  0
 29 47  1  0  0  0  0
 29 48  1  0  0  0  0
 29 49  1  0  0  0  0
 30 50  1  0  0  0  0
 30 51  1  0  0  0  0
 30 52  1  0  0  0  0
M  END
> <PUBCHEM_COMPOUND_CID>
45783818

> <PUBCHEM_CONFORMER_RMSD>
0.8

> <PUBCHEM_CONFORMER_DIVERSEORDER>
1
63
54
48
7
73
4
71
33
58
19
18
8
43
59
31
52
70
55
64
75
27
45
9
51
57
67
6
66
60
38
42
15
32
56
47
21
65
50
72
69
34
30
10
36
17
2
14
46
40
62
11
53
12
39
41
61
37
20
13
29
3
49
74
26
28
25
16
44
22
35
68
23
5
24

> <PUBCHEM_MMFF94_PARTIAL_CHARGES>
35
1 -0.34
10 0.45
13 0.27
14 0.41
15 0.3
16 -0.14
17 -0.15
18 -0.15
19 0.46
2 -0.34
20 -0.15
21 -0.15
22 -0.14
23 0.05
24 1.16
25 -0.15
26 0.16
27 -0.15
28 0.41
29 0.37
3 -0.34
30 0.37
4 -0.02
40 0.15
41 0.15
42 0.15
43 0.15
44 0.15
45 0.15
46 0.15
5 -0.81
6 -0.57
7 -0.41
8 -0.62
9 -0.84

> <PUBCHEM_EFFECTIVE_ROTOR_COUNT>
7

> <PUBCHEM_PHARMACOPHORE_FEATURES>
7
1 5 cation
3 6 7 19 cation
3 8 9 28 cation
5 4 6 7 15 19 rings
5 5 10 11 12 13 rings
6 16 17 18 20 21 22 rings
6 8 23 25 26 27 28 rings

> <PUBCHEM_HEAVY_ATOM_COUNT>
30

> <PUBCHEM_ATOM_DEF_STEREO_COUNT>
1

> <PUBCHEM_ATOM_UDEF_STEREO_COUNT>
0

> <PUBCHEM_BOND_DEF_STEREO_COUNT>
0

> <PUBCHEM_BOND_UDEF_STEREO_COUNT>
0

> <PUBCHEM_ISOTOPIC_ATOM_COUNT>
0

> <PUBCHEM_COMPONENT_COUNT>
1

> <PUBCHEM_CACTVS_TAUTO_COUNT>
1

> <PUBCHEM_CONFORMER_ID>
02BA9B0A00000001

> <PUBCHEM_MMFF94_ENERGY>
70.0935

> <PUBCHEM_FEATURE_SELFOVERLAP>
35.524

> <PUBCHEM_SHAPE_FINGERPRINT>
10032420 55 17822839901668972325
1100329 8 18339078186517807825
12156800 1 14711933344700074660
12166972 35 17821733857354098526
12788726 201 18118122472418411296
13009979 54 17464228566627356379
133893 2 18122363512305580865
13402501 40 18190451852156096192
13761468 95 17612042481769506158
14787075 74 18261112937640552812
14790565 3 17619063928686817817
16090146 7 17918279728329351971
17492 54 18042398037615105181
17818456 19 17830719968504493930
19319366 153 17534623703779337427
20642791 239 18188761748529385053
20642791 35 18335405856467266037
20691752 17 17531513365773017321
20764821 26 18335996302495517376
20775438 99 17691946573004762407
20905425 154 18266175226798422629
21344244 246 17980190117609897919
23419403 2 18044908351135699965
23557571 272 18272086046137142399
23559900 14 18338788018189634365
238918 7 17616527801641621920
3298306 158 17905041813423605893
392239 28 18337955585077062560
4017518 198 17406550785532812116
4280585 95 18337942420379547952
5171179 24 18341325686346523745
57527585 103 17170967139157938491
59755656 215 17542772554031553671
7471813 234 18412261778608366958

> <PUBCHEM_SHAPE_MULTIPOLES>
564.79
10.67
4.66
1.65
9.78
5.8
0.08
-9.67
-4.53
-0.75
0.61
0.28
-0.48
-0.14

> <PUBCHEM_SHAPE_SELFOVERLAP>
1224.785

> <PUBCHEM_SHAPE_VOLUME>
313.5

> <PUBCHEM_COORDINATE_TYPE>
2
5
10

$$$$
