75536990
  -OEChem-12032416303D

 50 53  0     1  0  0  0  0  0999 V2000
    7.0327    2.2448   -2.1703 F   0  0  0  0  0  0  0  0  0  0  0  0
    3.1766   -2.7109    1.0625 O   0  0  0  0  0  0  0  0  0  0  0  0
   -3.2800   -2.2336   -1.4929 O   0  0  0  0  0  0  0  0  0  0  0  0
   -4.6868   -0.1714   -1.0858 O   0  0  0  0  0  0  0  0  0  0  0  0
    1.0554   -1.8136    0.5990 N   0  0  0  0  0  0  0  0  0  0  0  0
    2.6235   -0.4530    1.4586 N   0  0  0  0  0  0  0  0  0  0  0  0
   -1.2460   -1.2969   -0.8777 N   0  0  0  0  0  0  0  0  0  0  0  0
    0.3653   -0.5553    0.8225 C   0  0  1  0  0  0  0  0  0  0  0  0
    1.4849    0.4111    1.2011 C   0  0  0  0  0  0  0  0  0  0  0  0
   -0.4306   -0.1568   -0.4177 C   0  0  0  0  0  0  0  0  0  0  0  0
    0.3263   -2.9512    0.0683 C   0  0  0  0  0  0  0  0  0  0  0  0
   -0.4844   -2.5247   -1.1532 C   0  0  0  0  0  0  0  0  0  0  0  0
    2.3837   -1.7785    1.0454 C   0  0  0  0  0  0  0  0  0  0  0  0
    3.8803    0.0636    1.9538 C   0  0  0  0  0  0  0  0  0  0  0  0
   -2.6241   -1.2725   -1.0833 C   0  0  0  0  0  0  0  0  0  0  0  0
    4.7208    0.6453    0.8542 C   0  0  0  0  0  0  0  0  0  0  0  0
   -3.3288    0.0239   -0.7738 C   0  0  0  0  0  0  0  0  0  0  0  0
    5.6248   -0.1634    0.1653 C   0  0  0  0  0  0  0  0  0  0  0  0
    4.5979    1.9943    0.5212 C   0  0  0  0  0  0  0  0  0  0  0  0
    6.4060    0.3767   -0.8562 C   0  0  0  0  0  0  0  0  0  0  0  0
    5.3792    2.5346   -0.5002 C   0  0  0  0  0  0  0  0  0  0  0  0
    6.2832    1.7258   -1.1890 C   0  0  0  0  0  0  0  0  0  0  0  0
   -5.6091    0.5814   -0.3934 C   0  0  0  0  0  0  0  0  0  0  0  0
   -5.2669    1.8524    0.0681 C   0  0  0  0  0  0  0  0  0  0  0  0
   -6.8855    0.0726   -0.1534 C   0  0  0  0  0  0  0  0  0  0  0  0
   -6.2011    2.6147    0.7695 C   0  0  0  0  0  0  0  0  0  0  0  0
   -7.8197    0.8349    0.5478 C   0  0  0  0  0  0  0  0  0  0  0  0
   -7.4774    2.1059    1.0094 C   0  0  0  0  0  0  0  0  0  0  0  0
   -0.3096   -0.7128    1.6736 H   0  0  0  0  0  0  0  0  0  0  0  0
    1.7388    1.0946    0.3850 H   0  0  0  0  0  0  0  0  0  0  0  0
    1.2417    0.9876    2.0986 H   0  0  0  0  0  0  0  0  0  0  0  0
   -1.0327    0.7283   -0.2051 H   0  0  0  0  0  0  0  0  0  0  0  0
    0.2394    0.0966   -1.2487 H   0  0  0  0  0  0  0  0  0  0  0  0
   -0.3396   -3.3026    0.8645 H   0  0  0  0  0  0  0  0  0  0  0  0
    1.0232   -3.7585   -0.1766 H   0  0  0  0  0  0  0  0  0  0  0  0
   -1.1460   -3.3380   -1.4668 H   0  0  0  0  0  0  0  0  0  0  0  0
    0.1847   -2.2992   -1.9923 H   0  0  0  0  0  0  0  0  0  0  0  0
    4.4268   -0.7564    2.4353 H   0  0  0  0  0  0  0  0  0  0  0  0
    3.6752    0.8069    2.7330 H   0  0  0  0  0  0  0  0  0  0  0  0
   -2.9202    0.8204   -1.4038 H   0  0  0  0  0  0  0  0  0  0  0  0
   -3.1786    0.2330    0.2925 H   0  0  0  0  0  0  0  0  0  0  0  0
    5.7302   -1.2160    0.4140 H   0  0  0  0  0  0  0  0  0  0  0  0
    3.8978    2.6351    1.0506 H   0  0  0  0  0  0  0  0  0  0  0  0
    7.1096   -0.2527   -1.3929 H   0  0  0  0  0  0  0  0  0  0  0  0
    5.2838    3.5848   -0.7597 H   0  0  0  0  0  0  0  0  0  0  0  0
   -4.2915    2.2919   -0.1187 H   0  0  0  0  0  0  0  0  0  0  0  0
   -7.1573   -0.9170   -0.5104 H   0  0  0  0  0  0  0  0  0  0  0  0
   -5.9368    3.6066    1.1245 H   0  0  0  0  0  0  0  0  0  0  0  0
   -8.8137    0.4389    0.7344 H   0  0  0  0  0  0  0  0  0  0  0  0
   -8.2052    2.6999    1.5545 H   0  0  0  0  0  0  0  0  0  0  0  0
  1 22  1  0  0  0  0
  2 13  2  0  0  0  0
  3 15  2  0  0  0  0
  4 17  1  0  0  0  0
  4 23  1  0  0  0  0
  5  8  1  0  0  0  0
  5 11  1  0  0  0  0
  5 13  1  0  0  0  0
  6  9  1  0  0  0  0
  6 13  1  0  0  0  0
  6 14  1  0  0  0  0
  7 10  1  0  0  0  0
  7 12  1  0  0  0  0
  7 15  1  0  0  0  0
  8  9  1  0  0  0  0
  8 10  1  0  0  0  0
  8 29  1  0  0  0  0
  9 30  1  0  0  0  0
  9 31  1  0  0  0  0
 10 32  1  0  0  0  0
 10 33  1  0  0  0  0
 11 12  1  0  0  0  0
 11 34  1  0  0  0  0
 11 35  1  0  0  0  0
 12 36  1  0  0  0  0
 12 37  1  0  0  0  0
 14 16  1  0  0  0  0
 14 38  1  0  0  0  0
 14 39  1  0  0  0  0
 15 17  1  0  0  0  0
 16 18  2  0  0  0  0
 16 19  1  0  0  0  0
 17 40  1  0  0  0  0
 17 41  1  0  0  0  0
 18 20  1  0  0  0  0
 18 42  1  0  0  0  0
 19 21  2  0  0  0  0
 19 43  1  0  0  0  0
 20 22  2  0  0  0  0
 20 44  1  0  0  0  0
 21 22  1  0  0  0  0
 21 45  1  0  0  0  0
 23 24  2  0  0  0  0
 23 25  1  0  0  0  0
 24 26  1  0  0  0  0
 24 46  1  0  0  0  0
 25 27  2  0  0  0  0
 25 47  1  0  0  0  0
 26 28  2  0  0  0  0
 26 48  1  0  0  0  0
 27 28  1  0  0  0  0
 27 49  1  0  0  0  0
 28 50  1  0  0  0  0
M  END
> <PUBCHEM_COMPOUND_CID>
75536990

> <PUBCHEM_CONFORMER_RMSD>
1

> <PUBCHEM_CONFORMER_DIVERSEORDER>
1
21
128
107
149
82
108
124
98
157
174
14
115
125
94
119
54
18
140
27
160
116
95
139
40
25
89
64
167
97
15
163
101
109
143
10
91
137
65
39
152
34
123
92
113
7
35
68
121
110
118
30
79
58
114
158
77
29
103
5
53
26
151
11
38
165
122
75
76
141
32
55
135
59
112
148
154
170
71
87
166
17
9
3
96
51
99
52
63
20
8
44
90
33
66
156
73
60
61
42
81
147
19
93
168
46
85
142
126
117
69
6
131
144
133
50
47
150
31
102
36
106
16
67
171
100
172
24
175
169
145
57
72
120
129
132
162
86
159
153
155
2
83
161
12
28
146
173
45
134
62
164
37
84
104
23
56
138
4
105
13
41
136
78
22
70
48
88
130
80
49
127
111
74
43

> <PUBCHEM_MMFF94_PARTIAL_CHARGES>
37
1 -0.19
10 0.3
11 0.3
12 0.3
13 0.69
14 0.44
15 0.57
16 -0.14
17 0.34
18 -0.15
19 -0.15
2 -0.57
20 -0.15
21 -0.15
22 0.19
23 0.08
24 -0.15
25 -0.15
26 -0.15
27 -0.15
28 -0.15
3 -0.57
4 -0.36
42 0.15
43 0.15
44 0.15
45 0.15
46 0.15
47 0.15
48 0.15
49 0.15
5 -0.66
50 0.15
6 -0.66
7 -0.66
8 0.3
9 0.3

> <PUBCHEM_EFFECTIVE_ROTOR_COUNT>
7.2

> <PUBCHEM_PHARMACOPHORE_FEATURES>
7
1 2 acceptor
1 3 acceptor
1 4 acceptor
5 5 6 8 9 13 rings
6 16 18 19 20 21 22 rings
6 23 24 25 26 27 28 rings
6 5 7 8 10 11 12 rings

> <PUBCHEM_HEAVY_ATOM_COUNT>
28

> <PUBCHEM_ATOM_DEF_STEREO_COUNT>
1

> <PUBCHEM_ATOM_UDEF_STEREO_COUNT>
0

> <PUBCHEM_BOND_DEF_STEREO_COUNT>
0

> <PUBCHEM_BOND_UDEF_STEREO_COUNT>
0

> <PUBCHEM_ISOTOPIC_ATOM_COUNT>
0

> <PUBCHEM_COMPONENT_COUNT>
1

> <PUBCHEM_CACTVS_TAUTO_COUNT>
1

> <PUBCHEM_CONFORMER_ID>
04809A5E00000001

> <PUBCHEM_MMFF94_ENERGY>
74.1045

> <PUBCHEM_FEATURE_SELFOVERLAP>
35.638

> <PUBCHEM_SHAPE_FINGERPRINT>
10670039 82 15913333451537788313
10674148 151 18272653459526811916
10816530 90 18201440208076185310
10906281 52 18409731755387970563
11475781 23 17346589803531925152
11621639 336 18265618680711058412
11796584 16 14979663438511307262
1200032 147 17967817180709015304
12342043 65 14708872266117019466
12390115 104 18201998859157726559
12596602 18 18114457856757290377
13761468 95 12463031883455163003
13782708 43 11959726075614767353
13885169 86 18261674873649921861
13914758 101 11959734867634380979
14347332 77 9367349249692264963
14428016 204 18409727327915031189
14461889 52 13623524654092761264
1454969 45 18410005538537008421
14790565 3 18412538829715813561
14840074 17 18113897173623961301
14849402 71 18260271880129090565
14951699 99 18335424565081141467
15183329 4 16272214084649363915
15188451 53 9223238438003103692
15475509 8 18059860566807383996
15575132 122 18260540096219927525
15685185 35 17606414387123076884
15728490 51 11241976984078454512
16993089 31 12822719618969027773
16993427 108 11239453540505311436
17857418 61 9367345963667405761
17899979 129 18336550538456615564
20567600 234 13551195502568838486
21315763 87 14779544552633960353
21315764 119 17918281965368464652
21458453 9 16443635708753094233
21585480 29 15285645442646405217
21781055 127 18412822474732184354
22149856 69 14346356711239437693
22864921 10 18268430135942629049
23522609 53 18409171012804685133
23559900 14 12175322730979112895
24771750 20 17917154892583077823
3014063 24 10591773073495379884
38570 142 18342461443382268823
397830 11 15574711404627335397
3986486 107 17989219157142753900
4058900 60 18342181025158060499
4073 2 18334017164866017987
4169191 19 18335979784378487661
4258327 124 18261379067242538279
4339292 15 14332866872563128996
439807 62 8790299168363700537
4408954 87 13984665892724821904
444735 79 11530475649757699640
474113 269 10447660058108694104
4756326 101 17272286032701228232
508180 173 17703788158526234867
5718773 13 9583520910460583013
5911458 16 18408610266032966861
5951187 136 18341621468629678076
59682541 35 13695872549650042212
59682541 52 15769780126113589092
59755656 215 17346882225826560205
6201320 82 17535489329212680932
6328613 192 18413669102268485661
6438161 24 8430309131190727289
8988823 20 11023820700373877378
9689198 14 18335710450398369261

> <PUBCHEM_SHAPE_MULTIPOLES>
536.4
22
3.13
1.53
17.74
0.66
-0.06
-19.96
-2.25
-0.54
-0.33
-1.77
-0.04
-3.61

> <PUBCHEM_SHAPE_SELFOVERLAP>
1153.05

> <PUBCHEM_SHAPE_VOLUME>
296.1

> <PUBCHEM_COORDINATE_TYPE>
2
5
10

$$$$
