45360664
  -OEChem-12032416393D

 72 75  0     1  0  0  0  0  0999 V2000
   -0.9714   -2.0267    2.7092 O   0  0  0  0  0  0  0  0  0  0  0  0
   -4.7023    3.2260   -0.3457 O   0  0  0  0  0  0  0  0  0  0  0  0
   -5.6855   -3.5735    0.1369 O   0  0  0  0  0  0  0  0  0  0  0  0
   -1.0609    1.0478    0.7439 N   0  0  1  0  0  0  0  0  0  0  0  0
   -1.6758    0.0548    3.2952 N   0  0  0  0  0  0  0  0  0  0  0  0
    2.4675    0.4648    0.1556 N   0  0  0  0  0  0  0  0  0  0  0  0
   -3.3422    1.9969   -1.7698 N   0  0  0  0  0  0  0  0  0  0  0  0
    8.7898   -0.3880   -0.2612 N   0  0  0  0  0  0  0  0  0  0  0  0
   -1.0214   -0.4072    0.9381 C   0  0  1  0  0  0  0  0  0  0  0  0
    1.0248    0.4769   -0.0254 C   0  0  1  0  0  0  0  0  0  0  0  0
    0.3555   -0.8298    0.4020 C   0  0  0  0  0  0  0  0  0  0  0  0
   -2.0643    1.7343    1.5499 C   0  0  1  0  0  0  0  0  0  0  0  0
    0.3163    1.5302    0.8153 C   0  0  0  0  0  0  0  0  0  0  0  0
   -1.8457    1.4647    3.0304 C   0  0  0  0  0  0  0  0  0  0  0  0
   -1.1963   -0.8567    2.3858 C   0  0  0  0  0  0  0  0  0  0  0  0
   -2.1254    3.2362    1.2686 C   0  0  0  0  0  0  0  0  0  0  0  0
   -2.3014    3.5111   -0.2186 C   0  0  0  0  0  0  0  0  0  0  0  0
    3.1251   -0.2518   -0.9298 C   0  0  0  0  0  0  0  0  0  0  0  0
   -3.5888    2.9174   -0.7617 C   0  0  0  0  0  0  0  0  0  0  0  0
    4.6199   -0.2877   -0.7534 C   0  0  0  0  0  0  0  0  0  0  0  0
    5.3827    0.8461   -1.0331 C   0  0  0  0  0  0  0  0  0  0  0  0
    5.2420   -1.4549   -0.3098 C   0  0  0  0  0  0  0  0  0  0  0  0
   -4.4047    1.2922   -2.4471 C   0  0  0  0  0  0  0  0  0  0  0  0
    6.7674    0.8128   -0.8697 C   0  0  0  0  0  0  0  0  0  0  0  0
    6.6268   -1.4881   -0.1464 C   0  0  0  0  0  0  0  0  0  0  0  0
    7.3895   -0.3544   -0.4264 C   0  0  0  0  0  0  0  0  0  0  0  0
   -4.7454   -0.0032   -1.7597 C   0  0  0  0  0  0  0  0  0  0  0  0
   -3.9110   -1.1115   -1.9057 C   0  0  0  0  0  0  0  0  0  0  0  0
   -5.8960   -0.0949   -0.9763 C   0  0  0  0  0  0  0  0  0  0  0  0
    9.4450   -1.5934    0.2063 C   0  0  0  0  0  0  0  0  0  0  0  0
    9.5912    0.7848   -0.5493 C   0  0  0  0  0  0  0  0  0  0  0  0
   -4.2271   -2.3113   -1.2687 C   0  0  0  0  0  0  0  0  0  0  0  0
   -6.2121   -1.2948   -0.3392 C   0  0  0  0  0  0  0  0  0  0  0  0
   -5.3778   -2.4030   -0.4854 C   0  0  0  0  0  0  0  0  0  0  0  0
   -4.7881   -4.6662   -0.0547 C   0  0  0  0  0  0  0  0  0  0  0  0
   -1.8218   -0.8774    0.3571 H   0  0  0  0  0  0  0  0  0  0  0  0
    0.7785    0.6799   -1.0788 H   0  0  0  0  0  0  0  0  0  0  0  0
    0.2586   -1.5058   -0.4554 H   0  0  0  0  0  0  0  0  0  0  0  0
    0.9515   -1.3447    1.1654 H   0  0  0  0  0  0  0  0  0  0  0  0
   -3.0398    1.3032    1.2842 H   0  0  0  0  0  0  0  0  0  0  0  0
    0.6999    1.5378    1.8428 H   0  0  0  0  0  0  0  0  0  0  0  0
    0.4517    2.5269    0.3851 H   0  0  0  0  0  0  0  0  0  0  0  0
   -0.9573    1.9753    3.4180 H   0  0  0  0  0  0  0  0  0  0  0  0
   -2.7046    1.8041    3.6195 H   0  0  0  0  0  0  0  0  0  0  0  0
   -1.2215    3.7437    1.6266 H   0  0  0  0  0  0  0  0  0  0  0  0
   -2.9662    3.6708    1.8243 H   0  0  0  0  0  0  0  0  0  0  0  0
   -1.8082   -0.2622    4.2507 H   0  0  0  0  0  0  0  0  0  0  0  0
    2.8083    1.4263    0.1726 H   0  0  0  0  0  0  0  0  0  0  0  0
   -1.4346    3.1853   -0.8012 H   0  0  0  0  0  0  0  0  0  0  0  0
   -2.3699    4.5953   -0.3738 H   0  0  0  0  0  0  0  0  0  0  0  0
    2.9043    0.2186   -1.8973 H   0  0  0  0  0  0  0  0  0  0  0  0
    2.7479   -1.2801   -0.9946 H   0  0  0  0  0  0  0  0  0  0  0  0
   -2.3867    1.7784   -2.0359 H   0  0  0  0  0  0  0  0  0  0  0  0
    4.9090    1.7607   -1.3803 H   0  0  0  0  0  0  0  0  0  0  0  0
    4.6596   -2.3447   -0.0860 H   0  0  0  0  0  0  0  0  0  0  0  0
   -4.0717    1.0943   -3.4723 H   0  0  0  0  0  0  0  0  0  0  0  0
   -5.2859    1.9407   -2.5161 H   0  0  0  0  0  0  0  0  0  0  0  0
    7.3161    1.7205   -1.1007 H   0  0  0  0  0  0  0  0  0  0  0  0
    7.0630   -2.4194    0.2011 H   0  0  0  0  0  0  0  0  0  0  0  0
   -3.0110   -1.0498   -2.5119 H   0  0  0  0  0  0  0  0  0  0  0  0
   -6.5540    0.7610   -0.8524 H   0  0  0  0  0  0  0  0  0  0  0  0
    9.0931   -1.8732    1.2055 H   0  0  0  0  0  0  0  0  0  0  0  0
    9.2832   -2.4263   -0.4870 H   0  0  0  0  0  0  0  0  0  0  0  0
   10.5298   -1.4603    0.2845 H   0  0  0  0  0  0  0  0  0  0  0  0
    9.4951    1.0818   -1.5996 H   0  0  0  0  0  0  0  0  0  0  0  0
    9.3114    1.6241    0.0971 H   0  0  0  0  0  0  0  0  0  0  0  0
   10.6571    0.5996   -0.3752 H   0  0  0  0  0  0  0  0  0  0  0  0
   -3.5345   -3.1316   -1.4235 H   0  0  0  0  0  0  0  0  0  0  0  0
   -7.1092   -1.3600    0.2703 H   0  0  0  0  0  0  0  0  0  0  0  0
   -5.1867   -5.5148    0.5109 H   0  0  0  0  0  0  0  0  0  0  0  0
   -3.7955   -4.4478    0.3537 H   0  0  0  0  0  0  0  0  0  0  0  0
   -4.7465   -4.9734   -1.1052 H   0  0  0  0  0  0  0  0  0  0  0  0
  1 15  2  0  0  0  0
  2 19  2  0  0  0  0
  3 34  1  0  0  0  0
  3 35  1  0  0  0  0
  4  9  1  0  0  0  0
  4 12  1  0  0  0  0
  4 13  1  0  0  0  0
  5 14  1  0  0  0  0
  5 15  1  0  0  0  0
  5 47  1  0  0  0  0
  6 10  1  0  0  0  0
  6 18  1  0  0  0  0
  6 48  1  0  0  0  0
  7 19  1  0  0  0  0
  7 23  1  0  0  0  0
  7 53  1  0  0  0  0
  8 26  1  0  0  0  0
  8 30  1  0  0  0  0
  8 31  1  0  0  0  0
  9 11  1  0  0  0  0
  9 15  1  0  0  0  0
  9 36  1  0  0  0  0
 10 11  1  0  0  0  0
 10 13  1  0  0  0  0
 10 37  1  0  0  0  0
 11 38  1  0  0  0  0
 11 39  1  0  0  0  0
 12 14  1  0  0  0  0
 12 16  1  0  0  0  0
 12 40  1  0  0  0  0
 13 41  1  0  0  0  0
 13 42  1  0  0  0  0
 14 43  1  0  0  0  0
 14 44  1  0  0  0  0
 16 17  1  0  0  0  0
 16 45  1  0  0  0  0
 16 46  1  0  0  0  0
 17 19  1  0  0  0  0
 17 49  1  0  0  0  0
 17 50  1  0  0  0  0
 18 20  1  0  0  0  0
 18 51  1  0  0  0  0
 18 52  1  0  0  0  0
 20 21  2  0  0  0  0
 20 22  1  0  0  0  0
 21 24  1  0  0  0  0
 21 54  1  0  0  0  0
 22 25  2  0  0  0  0
 22 55  1  0  0  0  0
 23 27  1  0  0  0  0
 23 56  1  0  0  0  0
 23 57  1  0  0  0  0
 24 26  2  0  0  0  0
 24 58  1  0  0  0  0
 25 26  1  0  0  0  0
 25 59  1  0  0  0  0
 27 28  2  0  0  0  0
 27 29  1  0  0  0  0
 28 32  1  0  0  0  0
 28 60  1  0  0  0  0
 29 33  2  0  0  0  0
 29 61  1  0  0  0  0
 30 62  1  0  0  0  0
 30 63  1  0  0  0  0
 30 64  1  0  0  0  0
 31 65  1  0  0  0  0
 31 66  1  0  0  0  0
 31 67  1  0  0  0  0
 32 34  2  0  0  0  0
 32 68  1  0  0  0  0
 33 34  1  0  0  0  0
 33 69  1  0  0  0  0
 35 70  1  0  0  0  0
 35 71  1  0  0  0  0
 35 72  1  0  0  0  0
M  END
> <PUBCHEM_COMPOUND_CID>
45360664

> <PUBCHEM_CONFORMER_RMSD>
1.2

> <PUBCHEM_CONFORMER_DIVERSEORDER>
1
15
74
54
111
33
115
64
69
29
9
49
50
48
117
109
73
4
98
107
57
18
93
23
112
25
76
104
90
7
91
85
47
116
61
97
95
10
86
56
96
30
13
102
12
113
39
106
84
110
66
22
70
63
44
89
8
43
87
88
59
78
55
42
81
27
41
58
46
99
31
101
67
72
71
80
79
26
108
36
34
19
35
17
100
37
114
52
11
77
62
60
75
65
94
28
21
92
6
16
103
53
82
83
40
24
32
38
68
118
5
20
3
105
51
45
14
2

> <PUBCHEM_MMFF94_PARTIAL_CHARGES>
44
1 -0.57
10 0.27
12 0.27
13 0.27
14 0.3
15 0.57
17 0.06
18 0.41
19 0.57
2 -0.57
20 -0.14
21 -0.15
22 -0.15
23 0.44
24 -0.15
25 -0.15
26 0.1
27 -0.14
28 -0.15
29 -0.15
3 -0.36
30 0.37
31 0.37
32 -0.15
33 -0.15
34 0.08
35 0.28
4 -0.81
47 0.37
48 0.36
5 -0.73
53 0.37
54 0.15
55 0.15
58 0.15
59 0.15
6 -0.9
60 0.15
61 0.15
68 0.15
69 0.15
7 -0.73
8 -0.84
9 0.33

> <PUBCHEM_EFFECTIVE_ROTOR_COUNT>
12.2

> <PUBCHEM_PHARMACOPHORE_FEATURES>
13
1 1 acceptor
1 2 acceptor
1 3 acceptor
1 4 cation
1 5 donor
1 6 cation
1 6 donor
1 7 donor
1 8 cation
5 4 9 10 11 13 rings
6 20 21 22 24 25 26 rings
6 27 28 29 32 33 34 rings
6 4 5 9 12 14 15 rings

> <PUBCHEM_HEAVY_ATOM_COUNT>
35

> <PUBCHEM_ATOM_DEF_STEREO_COUNT>
3

> <PUBCHEM_ATOM_UDEF_STEREO_COUNT>
0

> <PUBCHEM_BOND_DEF_STEREO_COUNT>
0

> <PUBCHEM_BOND_UDEF_STEREO_COUNT>
0

> <PUBCHEM_ISOTOPIC_ATOM_COUNT>
0

> <PUBCHEM_COMPONENT_COUNT>
1

> <PUBCHEM_CACTVS_TAUTO_COUNT>
6

> <PUBCHEM_CONFORMER_ID>
02B4261800000001

> <PUBCHEM_MMFF94_ENERGY>
101.0371

> <PUBCHEM_FEATURE_SELFOVERLAP>
66.16

> <PUBCHEM_SHAPE_FINGERPRINT>
10462385 53 14979960264054276452
10554248 39 17313112909030544822
10577160 103 18262518229613426720
10577160 183 16226037882755758288
10674148 151 18202842137574073385
11103572 155 10591774181866331996
11146851 88 8574717897203191271
12082328 90 18412822461277667534
12373685 5 17968088691462034322
12422481 6 10015583934591420312
12988421 55 12396578456648786421
13692115 27 16269367582674602646
14040222 275 17240778238109689518
14279260 333 18335134259061235686
14340393 91 18409729599361315336
14932701 244 18410016524683160167
15183329 4 16588296207604757646
15338160 23 9511457823138313147
15461852 350 18412549795727338644
17686467 74 18059571430357954712
4015057 19 18261399970374464280
437795 160 18339910573076115402
44426699 300 18119543265229243163
44802255 64 11602538719414823449
4938544 92 8790881887033058101
5080951 261 18131074805393185371
6086070 43 15430038807459772492
6691757 9 15936697003965127024
70634741 139 18344143683366992166

> <PUBCHEM_SHAPE_MULTIPOLES>
677.77
23.72
3.97
2.33
66.34
0.93
-1.68
11.37
10.05
-9.49
-0.26
-3.36
-0.55
-0.26

> <PUBCHEM_SHAPE_SELFOVERLAP>
1428.159

> <PUBCHEM_SHAPE_VOLUME>
381.9

> <PUBCHEM_COORDINATE_TYPE>
2
5
10

$$$$
