45361613
  -OEChem-12032416143D

 68 70  0     1  0  0  0  0  0999 V2000
    1.5110    1.3151   -0.6113 O   0  0  0  0  0  0  0  0  0  0  0  0
    5.5667   -2.0280   -0.6648 O   0  0  0  0  0  0  0  0  0  0  0  0
   -4.6889    0.2257    2.1291 O   0  0  0  0  0  0  0  0  0  0  0  0
   -3.6797   -0.0786    0.0640 N   0  0  0  0  0  0  0  0  0  0  0  0
    5.8957   -0.0512    0.4920 N   0  0  0  0  0  0  0  0  0  0  0  0
   -5.9876    0.5610   -1.1240 N   0  0  0  0  0  0  0  0  0  0  0  0
    5.5239    4.8089    0.5412 N   0  0  0  0  0  0  0  0  0  0  0  0
    0.1051   -2.1190    0.2863 C   0  0  1  0  0  0  0  0  0  0  0  0
    0.1457   -0.5619    0.1357 C   0  0  2  0  0  0  0  0  0  0  0  0
   -1.2340   -0.0137   -0.3777 C   0  0  1  0  0  0  0  0  0  0  0  0
    1.3907   -0.1065   -0.6789 C   0  0  2  0  0  0  0  0  0  0  0  0
    1.4368   -2.6131    0.8992 C   0  0  0  0  0  0  0  0  0  0  0  0
    2.7109   -0.6888   -0.1224 C   0  0  1  0  0  0  0  0  0  0  0  0
   -1.0322   -2.5018    1.2614 C   0  0  0  0  0  0  0  0  0  0  0  0
   -2.3800   -0.4679    0.5696 C   0  0  2  0  0  0  0  0  0  0  0  0
    2.6552   -2.2026    0.0829 C   0  0  0  0  0  0  0  0  0  0  0  0
   -2.3928   -1.9742    0.8290 C   0  0  0  0  0  0  0  0  0  0  0  0
   -0.1183   -2.8410   -1.0667 C   0  0  0  0  0  0  0  0  0  0  0  0
    3.9084   -0.3363   -1.0133 C   0  0  2  0  0  0  0  0  0  0  0  0
   -1.2736    1.5171   -0.5214 C   0  0  0  0  0  0  0  0  0  0  0  0
    3.6892   -0.9122   -2.4133 C   0  0  0  0  0  0  0  0  0  0  0  0
    5.1960   -0.8813   -0.3902 C   0  0  0  0  0  0  0  0  0  0  0  0
   -4.7352    0.2385    0.9017 C   0  0  0  0  0  0  0  0  0  0  0  0
   -6.0108    0.5924    0.2273 C   0  0  0  0  0  0  0  0  0  0  0  0
    5.5464    1.3242    0.8420 C   0  0  0  0  0  0  0  0  0  0  0  0
    7.1152   -0.5483    1.1201 C   0  0  0  0  0  0  0  0  0  0  0  0
    6.1944    2.3438   -0.0870 C   0  0  0  0  0  0  0  0  0  0  0  0
   -7.1276    0.9257    0.9766 C   0  0  0  0  0  0  0  0  0  0  0  0
   -8.2960    1.2471    0.2950 C   0  0  0  0  0  0  0  0  0  0  0  0
   -7.1418    0.8796   -1.7518 C   0  0  0  0  0  0  0  0  0  0  0  0
    5.8191    3.7212    0.2648 C   0  0  0  0  0  0  0  0  0  0  0  0
   -8.3116    1.2260   -1.0953 C   0  0  0  0  0  0  0  0  0  0  0  0
    0.2717   -0.1367    1.1445 H   0  0  0  0  0  0  0  0  0  0  0  0
   -1.4263   -0.4192   -1.3791 H   0  0  0  0  0  0  0  0  0  0  0  0
    1.2204   -0.3686   -1.7245 H   0  0  0  0  0  0  0  0  0  0  0  0
    1.4253   -3.7058    1.0030 H   0  0  0  0  0  0  0  0  0  0  0  0
    1.5463   -2.2112    1.9157 H   0  0  0  0  0  0  0  0  0  0  0  0
    2.8837   -0.2373    0.8649 H   0  0  0  0  0  0  0  0  0  0  0  0
   -1.0894   -3.5924    1.3695 H   0  0  0  0  0  0  0  0  0  0  0  0
   -0.8095   -2.1060    2.2614 H   0  0  0  0  0  0  0  0  0  0  0  0
   -2.2356    0.0343    1.5362 H   0  0  0  0  0  0  0  0  0  0  0  0
    3.5313   -2.5498    0.6416 H   0  0  0  0  0  0  0  0  0  0  0  0
    2.6429   -2.7657   -0.8517 H   0  0  0  0  0  0  0  0  0  0  0  0
   -2.7377   -2.5088   -0.0644 H   0  0  0  0  0  0  0  0  0  0  0  0
   -3.1273   -2.2105    1.6099 H   0  0  0  0  0  0  0  0  0  0  0  0
   -1.0809   -2.5982   -1.5237 H   0  0  0  0  0  0  0  0  0  0  0  0
   -0.0955   -3.9288   -0.9309 H   0  0  0  0  0  0  0  0  0  0  0  0
    0.6473   -2.5905   -1.8062 H   0  0  0  0  0  0  0  0  0  0  0  0
    3.9906    0.7466   -1.1368 H   0  0  0  0  0  0  0  0  0  0  0  0
   -0.6595    1.8506   -1.3626 H   0  0  0  0  0  0  0  0  0  0  0  0
   -0.9296    2.0113    0.3931 H   0  0  0  0  0  0  0  0  0  0  0  0
   -2.2833    1.8822   -0.7352 H   0  0  0  0  0  0  0  0  0  0  0  0
   -3.8316   -0.0960   -0.9407 H   0  0  0  0  0  0  0  0  0  0  0  0
    1.6158    1.5655    0.3225 H   0  0  0  0  0  0  0  0  0  0  0  0
    3.5701   -1.9968   -2.4511 H   0  0  0  0  0  0  0  0  0  0  0  0
    4.5776   -0.6997   -3.0228 H   0  0  0  0  0  0  0  0  0  0  0  0
    2.8551   -0.4443   -2.9415 H   0  0  0  0  0  0  0  0  0  0  0  0
    4.4591    1.4443    0.8261 H   0  0  0  0  0  0  0  0  0  0  0  0
    5.8477    1.5054    1.8818 H   0  0  0  0  0  0  0  0  0  0  0  0
    6.9881   -0.5240    2.2066 H   0  0  0  0  0  0  0  0  0  0  0  0
    7.3425   -1.5741    0.8195 H   0  0  0  0  0  0  0  0  0  0  0  0
    7.9533    0.0933    0.8343 H   0  0  0  0  0  0  0  0  0  0  0  0
    5.9098    2.1433   -1.1263 H   0  0  0  0  0  0  0  0  0  0  0  0
    7.2855    2.2471   -0.0449 H   0  0  0  0  0  0  0  0  0  0  0  0
   -7.1164    0.9425    2.0610 H   0  0  0  0  0  0  0  0  0  0  0  0
   -9.1930    1.5137    0.8459 H   0  0  0  0  0  0  0  0  0  0  0  0
   -7.1014    0.8482   -2.8356 H   0  0  0  0  0  0  0  0  0  0  0  0
   -9.2111    1.4730   -1.6474 H   0  0  0  0  0  0  0  0  0  0  0  0
  1 11  1  0  0  0  0
  1 54  1  0  0  0  0
  2 22  2  0  0  0  0
  3 23  2  0  0  0  0
  4 15  1  0  0  0  0
  4 23  1  0  0  0  0
  4 53  1  0  0  0  0
  5 22  1  0  0  0  0
  5 25  1  0  0  0  0
  5 26  1  0  0  0  0
  6 24  1  0  0  0  0
  6 30  2  0  0  0  0
  7 31  3  0  0  0  0
  8  9  1  0  0  0  0
  8 12  1  0  0  0  0
  8 14  1  0  0  0  0
  8 18  1  0  0  0  0
  9 10  1  0  0  0  0
  9 11  1  0  0  0  0
  9 33  1  0  0  0  0
 10 15  1  0  0  0  0
 10 20  1  0  0  0  0
 10 34  1  0  0  0  0
 11 13  1  0  0  0  0
 11 35  1  0  0  0  0
 12 16  1  0  0  0  0
 12 36  1  0  0  0  0
 12 37  1  0  0  0  0
 13 16  1  0  0  0  0
 13 19  1  0  0  0  0
 13 38  1  0  0  0  0
 14 17  1  0  0  0  0
 14 39  1  0  0  0  0
 14 40  1  0  0  0  0
 15 17  1  0  0  0  0
 15 41  1  0  0  0  0
 16 42  1  0  0  0  0
 16 43  1  0  0  0  0
 17 44  1  0  0  0  0
 17 45  1  0  0  0  0
 18 46  1  0  0  0  0
 18 47  1  0  0  0  0
 18 48  1  0  0  0  0
 19 21  1  0  0  0  0
 19 22  1  0  0  0  0
 19 49  1  0  0  0  0
 20 50  1  0  0  0  0
 20 51  1  0  0  0  0
 20 52  1  0  0  0  0
 21 55  1  0  0  0  0
 21 56  1  0  0  0  0
 21 57  1  0  0  0  0
 23 24  1  0  0  0  0
 24 28  2  0  0  0  0
 25 27  1  0  0  0  0
 25 58  1  0  0  0  0
 25 59  1  0  0  0  0
 26 60  1  0  0  0  0
 26 61  1  0  0  0  0
 26 62  1  0  0  0  0
 27 31  1  0  0  0  0
 27 63  1  0  0  0  0
 27 64  1  0  0  0  0
 28 29  1  0  0  0  0
 28 65  1  0  0  0  0
 29 32  2  0  0  0  0
 29 66  1  0  0  0  0
 30 32  1  0  0  0  0
 30 67  1  0  0  0  0
 32 68  1  0  0  0  0
M  END
> <PUBCHEM_COMPOUND_CID>
45361613

> <PUBCHEM_CONFORMER_RMSD>
1

> <PUBCHEM_CONFORMER_DIVERSEORDER>
1
89
135
152
148
61
198
190
114
132
113
12
118
141
80
202
193
146
162
84
188
210
154
144
30
101
17
184
199
66
211
43
59
97
209
50
78
95
125
181
81
143
64
36
106
175
201
65
178
111
88
19
194
180
171
157
150
21
149
166
137
79
70
195
116
34
129
58
86
73
187
176
76
167
119
131
145
134
164
151
206
68
203
62
31
138
207
170
56
46
23
120
196
122
161
204
174
105
115
189
212
179
103
213
94
63
42
52
13
90
60
109
51
92
98
163
192
27
38
32
208
173
47
160
49
155
147
16
77
82
158
156
110
96
37
139
104
124
44
11
87
93
72
69
112
99
3
74
130
26
40
140
28
169
117
121
39
35
55
57
4
128
24
183
127
100
177
71
41
153
22
85
136
186
102
168
29
8
126
83
5
91
133
182
123
75
205
33
191
172
15
54
7
107
20
165
200
53
159
67
108
142
25
48
185
10
6
9
45
2
18
14
197

> <PUBCHEM_MMFF94_PARTIAL_CHARGES>
27
1 -0.68
11 0.28
15 0.3
19 0.06
2 -0.57
22 0.57
23 0.54
24 0.4
25 0.3
26 0.3
27 0.2
28 -0.15
29 -0.15
3 -0.57
30 0.16
31 0.36
32 -0.15
4 -0.73
5 -0.66
53 0.37
54 0.4
6 -0.62
65 0.15
66 0.15
67 0.15
68 0.15
7 -0.56

> <PUBCHEM_EFFECTIVE_ROTOR_COUNT>
9.6

> <PUBCHEM_PHARMACOPHORE_FEATURES>
11
1 1 acceptor
1 1 donor
1 2 acceptor
1 21 hydrophobe
1 3 acceptor
1 4 donor
1 6 acceptor
1 7 acceptor
6 6 24 28 29 30 32 rings
6 8 9 10 14 15 17 rings
6 8 9 11 12 13 16 rings

> <PUBCHEM_HEAVY_ATOM_COUNT>
32

> <PUBCHEM_ATOM_DEF_STEREO_COUNT>
6

> <PUBCHEM_ATOM_UDEF_STEREO_COUNT>
1

> <PUBCHEM_BOND_DEF_STEREO_COUNT>
0

> <PUBCHEM_BOND_UDEF_STEREO_COUNT>
0

> <PUBCHEM_ISOTOPIC_ATOM_COUNT>
0

> <PUBCHEM_COMPONENT_COUNT>
1

> <PUBCHEM_CACTVS_TAUTO_COUNT>
2

> <PUBCHEM_CONFORMER_ID>
02B429CD00000001

> <PUBCHEM_MMFF94_ENERGY>
91.7989

> <PUBCHEM_FEATURE_SELFOVERLAP>
55.837

> <PUBCHEM_SHAPE_FINGERPRINT>
10 15 17822013120601674504
10006869 2 18261946354501303482
10280341 67 17984976258036548576
10835480 77 18411982502718221656
11386260 185 18201727219898405580
11719270 70 17676773076059250219
12838862 33 18261099760295909367
12925494 130 18196650924662980848
13782708 43 11959721652099099957
15840311 113 18410858754420981676
16120349 18 18411978070232922229
21033648 29 17676209091482401075
21150785 3 16773791481410911539
21403212 168 18333726892835987562
21521721 280 18411982464158286081
21585482 111 18264490775323481492
21792934 111 18040709217233984808
21859007 373 17749378248388962725
22224240 67 18260829289605926227
23522609 53 17130728101857702803
23559900 14 18342453777351092105
24771293 8 18335138747317722261
249057 25 17203338762385615586
27425 322 18343020025644659870
2838139 119 18335977606033327407
312425 54 13551484695137536673
335352 9 18260838068245039302
3472631 163 18343866645397693750
3711267 37 17987249846329862521
397638 26 17530683212824025129
4093350 32 17704075066404504510
4340502 62 16226051067482748915
5104073 3 18189342427996846866
57634706 306 18336819891932550245
58902169 19 17775559832322725996
6898599 12 17986953153328752414

> <PUBCHEM_SHAPE_MULTIPOLES>
621.01
22.74
3.51
1.46
25.44
2.66
0.35
17.91
0.1
-7.24
-0.62
0.71
-0.25
1.71

> <PUBCHEM_SHAPE_SELFOVERLAP>
1287.734

> <PUBCHEM_SHAPE_VOLUME>
347.1

> <PUBCHEM_COORDINATE_TYPE>
2
5
10

$$$$
