26744016
  -OEChem-12032416293D

 52 55  0     1  0  0  0  0  0999 V2000
    2.5162    0.1771   -0.5987 S   0  0  0  0  0  0  0  0  0  0  0  0
   -3.2154   -5.4404    0.3844 F   0  0  0  0  0  0  0  0  0  0  0  0
   -5.3261    2.8605    2.0735 O   0  0  0  0  0  0  0  0  0  0  0  0
   -0.6987    3.2849   -1.2290 O   0  0  0  0  0  0  0  0  0  0  0  0
    2.5334    0.3903   -2.0337 O   0  0  0  0  0  0  0  0  0  0  0  0
    1.6393   -0.8188   -0.0125 O   0  0  0  0  0  0  0  0  0  0  0  0
   -3.1694    0.8732    0.0314 N   0  0  1  0  0  0  0  0  0  0  0  0
   -0.2901    1.6370    0.2319 N   0  0  0  0  0  0  0  0  0  0  0  0
    0.6951    3.1901   -1.1285 N   0  0  0  0  0  0  0  0  0  0  0  0
   -2.7102    2.2312   -0.3242 C   0  0  1  0  0  0  0  0  0  0  0  0
   -3.3202    3.1477    0.7526 C   0  0  0  0  0  0  0  0  0  0  0  0
   -4.1414    2.2209    1.6404 C   0  0  2  0  0  0  0  0  0  0  0  0
   -4.4376    1.0371    0.7394 C   0  0  0  0  0  0  0  0  0  0  0  0
   -3.2945   -0.0108   -1.1201 C   0  0  0  0  0  0  0  0  0  0  0  0
   -1.2013    2.3362   -0.3962 C   0  0  0  0  0  0  0  0  0  0  0  0
   -3.2735   -1.4616   -0.7182 C   0  0  0  0  0  0  0  0  0  0  0  0
    0.8574    2.1970   -0.2493 C   0  0  0  0  0  0  0  0  0  0  0  0
   -2.0615   -2.1489   -0.6506 C   0  0  0  0  0  0  0  0  0  0  0  0
   -4.4656   -2.1184   -0.4132 C   0  0  0  0  0  0  0  0  0  0  0  0
    2.1868    1.7390    0.1693 C   0  0  0  0  0  0  0  0  0  0  0  0
   -2.0418   -3.4930   -0.2785 C   0  0  0  0  0  0  0  0  0  0  0  0
   -4.4460   -3.4625   -0.0411 C   0  0  0  0  0  0  0  0  0  0  0  0
    4.1607   -0.2097   -0.0818 C   0  0  0  0  0  0  0  0  0  0  0  0
   -3.2339   -4.1498    0.0262 C   0  0  0  0  0  0  0  0  0  0  0  0
    4.3703   -0.9323    1.0928 C   0  0  0  0  0  0  0  0  0  0  0  0
    5.2493    0.2097   -0.8465 C   0  0  0  0  0  0  0  0  0  0  0  0
    5.6686   -1.2355    1.5026 C   0  0  0  0  0  0  0  0  0  0  0  0
    6.5475   -0.0935   -0.4366 C   0  0  0  0  0  0  0  0  0  0  0  0
    6.7572   -0.8162    0.7379 C   0  0  0  0  0  0  0  0  0  0  0  0
    8.1454   -1.1406    1.1762 C   0  0  0  0  0  0  0  0  0  0  0  0
   -3.1283    2.5313   -1.2955 H   0  0  0  0  0  0  0  0  0  0  0  0
   -2.5682    3.6769    1.3493 H   0  0  0  0  0  0  0  0  0  0  0  0
   -3.9580    3.9088    0.2859 H   0  0  0  0  0  0  0  0  0  0  0  0
   -3.5605    1.9078    2.5166 H   0  0  0  0  0  0  0  0  0  0  0  0
   -4.7077    0.1622    1.3390 H   0  0  0  0  0  0  0  0  0  0  0  0
   -5.2766    1.2628    0.0679 H   0  0  0  0  0  0  0  0  0  0  0  0
   -2.4532    0.1455   -1.8097 H   0  0  0  0  0  0  0  0  0  0  0  0
   -4.1905    0.2102   -1.7162 H   0  0  0  0  0  0  0  0  0  0  0  0
   -5.0643    3.6489    2.5790 H   0  0  0  0  0  0  0  0  0  0  0  0
   -1.1257   -1.6484   -0.8842 H   0  0  0  0  0  0  0  0  0  0  0  0
   -5.4177   -1.5973   -0.4671 H   0  0  0  0  0  0  0  0  0  0  0  0
    2.2302    1.6017    1.2537 H   0  0  0  0  0  0  0  0  0  0  0  0
    2.9709    2.4388   -0.1352 H   0  0  0  0  0  0  0  0  0  0  0  0
   -1.0983   -4.0281   -0.2254 H   0  0  0  0  0  0  0  0  0  0  0  0
   -5.3740   -3.9746    0.1953 H   0  0  0  0  0  0  0  0  0  0  0  0
    3.5375   -1.2623    1.7071 H   0  0  0  0  0  0  0  0  0  0  0  0
    5.1081    0.7790   -1.7607 H   0  0  0  0  0  0  0  0  0  0  0  0
    5.8192   -1.7991    2.4195 H   0  0  0  0  0  0  0  0  0  0  0  0
    7.3877    0.2385   -1.0408 H   0  0  0  0  0  0  0  0  0  0  0  0
    8.4579   -2.1007    0.7538 H   0  0  0  0  0  0  0  0  0  0  0  0
    8.8522   -0.3685    0.8538 H   0  0  0  0  0  0  0  0  0  0  0  0
    8.2116   -1.1992    2.2680 H   0  0  0  0  0  0  0  0  0  0  0  0
  1  5  2  0  0  0  0
  1  6  2  0  0  0  0
  1 20  1  0  0  0  0
  1 23  1  0  0  0  0
  2 24  1  0  0  0  0
  3 12  1  0  0  0  0
  3 39  1  0  0  0  0
  4  9  1  0  0  0  0
  4 15  1  0  0  0  0
  7 10  1  0  0  0  0
  7 13  1  0  0  0  0
  7 14  1  0  0  0  0
  8 15  2  0  0  0  0
  8 17  1  0  0  0  0
  9 17  2  0  0  0  0
 10 11  1  0  0  0  0
 10 15  1  0  0  0  0
 10 31  1  0  0  0  0
 11 12  1  0  0  0  0
 11 32  1  0  0  0  0
 11 33  1  0  0  0  0
 12 13  1  0  0  0  0
 12 34  1  0  0  0  0
 13 35  1  0  0  0  0
 13 36  1  0  0  0  0
 14 16  1  0  0  0  0
 14 37  1  0  0  0  0
 14 38  1  0  0  0  0
 16 18  2  0  0  0  0
 16 19  1  0  0  0  0
 17 20  1  0  0  0  0
 18 21  1  0  0  0  0
 18 40  1  0  0  0  0
 19 22  2  0  0  0  0
 19 41  1  0  0  0  0
 20 42  1  0  0  0  0
 20 43  1  0  0  0  0
 21 24  2  0  0  0  0
 21 44  1  0  0  0  0
 22 24  1  0  0  0  0
 22 45  1  0  0  0  0
 23 25  2  0  0  0  0
 23 26  1  0  0  0  0
 25 27  1  0  0  0  0
 25 46  1  0  0  0  0
 26 28  2  0  0  0  0
 26 47  1  0  0  0  0
 27 29  2  0  0  0  0
 27 48  1  0  0  0  0
 28 29  1  0  0  0  0
 28 49  1  0  0  0  0
 29 30  1  0  0  0  0
 30 50  1  0  0  0  0
 30 51  1  0  0  0  0
 30 52  1  0  0  0  0
M  END
> <PUBCHEM_COMPOUND_CID>
26744016

> <PUBCHEM_CONFORMER_RMSD>
1.2

> <PUBCHEM_CONFORMER_DIVERSEORDER>
1
89
92
14
46
49
122
4
102
78
48
22
81
95
40
106
34
83
6
8
75
51
119
42
56
134
125
128
26
97
67
88
68
84
57
58
7
32
66
30
60
105
93
11
132
31
130
23
127
120
110
63
24
94
126
13
112
12
98
17
50
21
52
2
117
80
118
37
79
101
129
38
135
25
47
29
36
62
28
54
20
103
5
55
133
111
90
87
74
43
61
113
41
115
108
77
65
86
45
69
72
3
33
18
44
116
35
123
53
9
71
107
121
82
104
114
76
27
109
96
19
91
59
73
100
16
64
10
15
131
85
99
124
39
70

> <PUBCHEM_MMFF94_PARTIAL_CHARGES>
38
1 1.2
10 0.45
12 0.28
13 0.27
14 0.41
15 0.3
16 -0.14
17 0.34
18 -0.15
19 -0.15
2 -0.19
20 0.29
21 -0.15
22 -0.15
23 -0.01
24 0.19
25 -0.15
26 -0.15
27 -0.15
28 -0.15
29 -0.14
3 -0.68
30 0.14
39 0.4
4 -0.02
40 0.15
41 0.15
44 0.15
45 0.15
46 0.15
47 0.15
48 0.15
49 0.15
5 -0.65
6 -0.65
7 -0.81
8 -0.57
9 -0.41

> <PUBCHEM_EFFECTIVE_ROTOR_COUNT>
7

> <PUBCHEM_PHARMACOPHORE_FEATURES>
10
1 3 acceptor
1 3 donor
1 5 acceptor
1 6 acceptor
1 7 cation
3 8 9 17 cation
5 4 8 9 15 17 rings
5 7 10 11 12 13 rings
6 16 18 19 21 22 24 rings
6 23 25 26 27 28 29 rings

> <PUBCHEM_HEAVY_ATOM_COUNT>
30

> <PUBCHEM_ATOM_DEF_STEREO_COUNT>
2

> <PUBCHEM_ATOM_UDEF_STEREO_COUNT>
0

> <PUBCHEM_BOND_DEF_STEREO_COUNT>
0

> <PUBCHEM_BOND_UDEF_STEREO_COUNT>
0

> <PUBCHEM_ISOTOPIC_ATOM_COUNT>
0

> <PUBCHEM_COMPONENT_COUNT>
1

> <PUBCHEM_CACTVS_TAUTO_COUNT>
1

> <PUBCHEM_CONFORMER_ID>
019814D000000001

> <PUBCHEM_MMFF94_ENERGY>
52.4594

> <PUBCHEM_FEATURE_SELFOVERLAP>
50.764

> <PUBCHEM_SHAPE_FINGERPRINT>
10290309 65 17977386031845179860
10305334 12 18410856525892559103
10319688 45 18336259072568348676
10483366 6 18190155964049648549
10673678 19 8824401036377679864
11014199 57 18265899253274092767
11315621 246 18335988584676397502
12990986 174 18409727404380131238
13540713 5 18263939888983239460
13726171 33 17983328029322569324
14068700 675 18128522942327490303
14395042 24 18411709803430478403
14705955 166 17203337676265064875
14844126 61 18410012139527053243
14856354 85 18273215266465311084
14866123 147 18412549834218740995
15250474 111 18334573547370948086
15320294 125 18187649050613188159
15537594 2 18113901511809559224
15728490 83 18261677077016001171
16110190 28 18410579457182743176
17492 89 18048594017218021975
20775530 9 18122340439657033039
21033648 29 16916487204207115554
229767 44 18411421665978354819
23559900 14 18120361323159250927
3383291 50 18341899589310542747
397830 11 18200578294919880600
4073 2 18202283572687179090
4435113 14 17916600739112841222
4616759 239 17988350478473571664
484985 159 18408882958497363271
5104073 3 18272647978753105144
5364581 5 17916570060077075768
5486654 36 18409453621863933985
563151 74 15984834696338318455
6371380 46 18272079449590018233
9953998 17 18271799082946413432
9961470 85 18053103926025977263

> <PUBCHEM_SHAPE_MULTIPOLES>
575.54
16.42
5.42
1.36
30.91
4.34
-0.2
6.84
-6.11
-11.39
-0.44
0.11
-0.69
-2.86

> <PUBCHEM_SHAPE_SELFOVERLAP>
1228.109

> <PUBCHEM_SHAPE_VOLUME>
323.1

> <PUBCHEM_COORDINATE_TYPE>
2
5
10

$$$$
