56775906
  -OEChem-12032416343D

 41 43  0     1  0  0  0  0  0999 V2000
    3.7939    1.8695    1.2004 O   0  0  0  0  0  0  0  0  0  0  0  0
    2.8820   -0.3789   -0.3205 N   0  0  2  0  0  0  0  0  0  0  0  0
   -0.5716    0.2007    0.4261 N   0  0  0  0  0  0  0  0  0  0  0  0
    0.2929    1.0281   -1.4446 N   0  0  0  0  0  0  0  0  0  0  0  0
    1.9320    0.4916    0.4177 C   0  0  1  0  0  0  0  0  0  0  0  0
    2.4227   -1.7713   -0.3820 C   0  0  0  0  0  0  0  0  0  0  0  0
    4.2113   -0.3367    0.3149 C   0  0  0  0  0  0  0  0  0  0  0  0
    2.5173    1.9100    0.5631 C   0  0  0  0  0  0  0  0  0  0  0  0
    4.7107    1.0972    0.4287 C   0  0  0  0  0  0  0  0  0  0  0  0
    0.5605    0.5883   -0.2351 C   0  0  0  0  0  0  0  0  0  0  0  0
    3.0560   -2.4622   -1.5855 C   0  0  0  0  0  0  0  0  0  0  0  0
    2.7686   -2.5002    0.9134 C   0  0  0  0  0  0  0  0  0  0  0  0
   -1.6284    0.4064   -0.4154 C   0  0  0  0  0  0  0  0  0  0  0  0
   -1.0699    0.9173   -1.5633 C   0  0  0  0  0  0  0  0  0  0  0  0
   -2.9916    0.1103   -0.0621 C   0  0  0  0  0  0  0  0  0  0  0  0
   -4.0330    0.8555   -0.6151 C   0  0  0  0  0  0  0  0  0  0  0  0
   -3.2716   -0.9219    0.8333 C   0  0  0  0  0  0  0  0  0  0  0  0
   -5.3545    0.5686   -0.2727 C   0  0  0  0  0  0  0  0  0  0  0  0
   -4.5929   -1.2089    1.1757 C   0  0  0  0  0  0  0  0  0  0  0  0
   -5.6345   -0.4636    0.6228 C   0  0  0  0  0  0  0  0  0  0  0  0
    1.8062    0.0985    1.4359 H   0  0  0  0  0  0  0  0  0  0  0  0
    1.3396   -1.8260   -0.5373 H   0  0  0  0  0  0  0  0  0  0  0  0
    4.9495   -0.9064   -0.2589 H   0  0  0  0  0  0  0  0  0  0  0  0
    4.2035   -0.7041    1.3470 H   0  0  0  0  0  0  0  0  0  0  0  0
    1.8608    2.5288    1.1857 H   0  0  0  0  0  0  0  0  0  0  0  0
    2.6119    2.4177   -0.4060 H   0  0  0  0  0  0  0  0  0  0  0  0
    5.6776    1.1180    0.9421 H   0  0  0  0  0  0  0  0  0  0  0  0
    4.8498    1.5595   -0.5561 H   0  0  0  0  0  0  0  0  0  0  0  0
    4.1433   -2.5556   -1.5011 H   0  0  0  0  0  0  0  0  0  0  0  0
    2.8325   -1.9198   -2.5112 H   0  0  0  0  0  0  0  0  0  0  0  0
    2.6527   -3.4753   -1.6948 H   0  0  0  0  0  0  0  0  0  0  0  0
    3.8303   -2.7542    1.0106 H   0  0  0  0  0  0  0  0  0  0  0  0
    2.4259   -1.9805    1.8137 H   0  0  0  0  0  0  0  0  0  0  0  0
    2.2455   -3.4657    0.9168 H   0  0  0  0  0  0  0  0  0  0  0  0
   -0.6111   -0.1616    1.3698 H   0  0  0  0  0  0  0  0  0  0  0  0
   -1.5706    1.2106   -2.4753 H   0  0  0  0  0  0  0  0  0  0  0  0
   -3.8418    1.6689   -1.3108 H   0  0  0  0  0  0  0  0  0  0  0  0
   -2.4836   -1.5283    1.2727 H   0  0  0  0  0  0  0  0  0  0  0  0
   -6.1655    1.1495   -0.7021 H   0  0  0  0  0  0  0  0  0  0  0  0
   -4.8115   -2.0142    1.8709 H   0  0  0  0  0  0  0  0  0  0  0  0
   -6.6633   -0.6873    0.8893 H   0  0  0  0  0  0  0  0  0  0  0  0
  1  8  1  0  0  0  0
  1  9  1  0  0  0  0
  2  5  1  0  0  0  0
  2  6  1  0  0  0  0
  2  7  1  0  0  0  0
  3 10  1  0  0  0  0
  3 13  1  0  0  0  0
  3 35  1  0  0  0  0
  4 10  2  0  0  0  0
  4 14  1  0  0  0  0
  5  8  1  0  0  0  0
  5 10  1  0  0  0  0
  5 21  1  0  0  0  0
  6 11  1  0  0  0  0
  6 12  1  0  0  0  0
  6 22  1  0  0  0  0
  7  9  1  0  0  0  0
  7 23  1  0  0  0  0
  7 24  1  0  0  0  0
  8 25  1  0  0  0  0
  8 26  1  0  0  0  0
  9 27  1  0  0  0  0
  9 28  1  0  0  0  0
 11 29  1  0  0  0  0
 11 30  1  0  0  0  0
 11 31  1  0  0  0  0
 12 32  1  0  0  0  0
 12 33  1  0  0  0  0
 12 34  1  0  0  0  0
 13 14  2  0  0  0  0
 13 15  1  0  0  0  0
 14 36  1  0  0  0  0
 15 16  2  0  0  0  0
 15 17  1  0  0  0  0
 16 18  1  0  0  0  0
 16 37  1  0  0  0  0
 17 19  2  0  0  0  0
 17 38  1  0  0  0  0
 18 20  2  0  0  0  0
 18 39  1  0  0  0  0
 19 20  1  0  0  0  0
 19 40  1  0  0  0  0
 20 41  1  0  0  0  0
M  END
> <PUBCHEM_COMPOUND_CID>
56775906

> <PUBCHEM_CONFORMER_RMSD>
0.6

> <PUBCHEM_CONFORMER_DIVERSEORDER>
1
37
54
23
22
49
21
24
16
36
56
27
30
32
33
13
48
52
47
28
51
44
41
8
11
25
19
20
35
57
26
55
14
40
15
4
9
43
3
50
46
10
18
5
29
31
7
38
53
42
39
12
17
45
6
2
34

> <PUBCHEM_MMFF94_PARTIAL_CHARGES>
25
1 -0.56
10 0.01
13 -0.2
14 0.08
15 0.05
16 -0.15
17 -0.15
18 -0.15
19 -0.15
2 -0.81
20 -0.15
3 0.03
35 0.27
36 0.15
37 0.15
38 0.15
39 0.15
4 -0.57
40 0.15
41 0.15
5 0.45
6 0.27
7 0.27
8 0.28
9 0.28

> <PUBCHEM_EFFECTIVE_ROTOR_COUNT>
4.2

> <PUBCHEM_PHARMACOPHORE_FEATURES>
8
1 1 acceptor
1 2 cation
1 3 donor
3 3 4 10 cation
3 6 11 12 hydrophobe
5 3 4 10 13 14 rings
6 1 2 5 7 8 9 rings
6 15 16 17 18 19 20 rings

> <PUBCHEM_HEAVY_ATOM_COUNT>
20

> <PUBCHEM_ATOM_DEF_STEREO_COUNT>
1

> <PUBCHEM_ATOM_UDEF_STEREO_COUNT>
0

> <PUBCHEM_BOND_DEF_STEREO_COUNT>
0

> <PUBCHEM_BOND_UDEF_STEREO_COUNT>
0

> <PUBCHEM_ISOTOPIC_ATOM_COUNT>
0

> <PUBCHEM_COMPONENT_COUNT>
1

> <PUBCHEM_CACTVS_TAUTO_COUNT>
2

> <PUBCHEM_CONFORMER_ID>
036254E200000001

> <PUBCHEM_MMFF94_ENERGY>
42.0914

> <PUBCHEM_FEATURE_SELFOVERLAP>
40.597

> <PUBCHEM_SHAPE_FINGERPRINT>
10670039 82 14045477638603640673
10912923 1 16988561312631296447
11370993 144 18342182107747872449
114674 6 18335989657796703106
11552529 35 17416682647611601535
12107183 9 17411917080526867939
12236239 1 16630525145827804644
12507560 40 18411699872706473253
12596602 18 17418095468270690291
12644460 14 17703793613108299990
12670546 56 18131634461244145961
12892183 10 18342742918617663297
13533116 47 18202005396013301771
13544592 145 18334582295765824811
13583140 156 17988075725036379521
13631057 29 17271428416849447791
13675066 3 18335140908239782861
13911882 115 18336558199749583826
13955234 65 17988640779561127954
14115302 16 14201400507899386880
14251764 30 16913993391719070454
14252887 29 18260832596081657312
14289901 80 18131062749457031881
14341114 176 18341899601488504409
14386348 63 18113057125497209291
14573314 32 18335419045911054893
15142526 21 17271708787866550232
15375358 24 18186518825811363387
15664445 248 17530975678527198380
17349148 13 14418126292748487840
17844677 252 18272940388547570481
17859628 70 18200881656185502174
1813 80 16660648449151770197
19141452 34 18260550048128227979
20645477 70 18271802389258743974
21033648 29 18270664438264973801
21033650 10 15720519715881939348
21065199 12 18411700980776380609
21065201 7 17676485008697499737
212847 35 13326581743586271012
21673915 165 18267864063494904703
2215653 11 18334574595516990119
22182313 1 18114451271833810807
22224240 67 18338790243188136448
23402539 116 16588296198444773125
23557571 272 17313377881845890924
23559900 14 18187083918853147741
239999 70 18409453574840930678
26918003 58 18410290324337281849
31174 14 18340764858486215700
33824 294 18410571782339896978
3421961 26 18270119003040219238
4325135 7 17022906787212589788
4340502 62 18272651289608082234
5104073 3 18337391531142862841
5924683 9 18197776807732630775
621550 34 18334285483703538980
8272917 22 17989209226549968142
8988823 20 18342731914821494469
9709674 26 18114751537677920331
9981440 41 15045217606350179848

> <PUBCHEM_SHAPE_MULTIPOLES>
390.78
11.72
2.13
1.27
9.66
0.99
-0.3
0.87
2.68
-2.8
0.04
-0.22
0.17
1.84

> <PUBCHEM_SHAPE_SELFOVERLAP>
832.042

> <PUBCHEM_SHAPE_VOLUME>
217.6

> <PUBCHEM_COORDINATE_TYPE>
2
5
10

$$$$
