45360663
  -OEChem-12032416373D

 68 71  0     1  0  0  0  0  0999 V2000
   -0.6339   -1.9795    2.7255 O   0  0  0  0  0  0  0  0  0  0  0  0
   -4.4605    3.1846   -0.3618 O   0  0  0  0  0  0  0  0  0  0  0  0
    9.0281   -0.2489   -0.3540 O   0  0  0  0  0  0  0  0  0  0  0  0
   -5.3530   -3.6201    0.1992 O   0  0  0  0  0  0  0  0  0  0  0  0
   -0.7810    1.0699    0.7248 N   0  0  1  0  0  0  0  0  0  0  0  0
   -1.3625    0.0990    3.2925 N   0  0  0  0  0  0  0  0  0  0  0  0
    2.7505    0.5284    0.1158 N   0  0  0  0  0  0  0  0  0  0  0  0
   -3.0945    1.9574   -1.7819 N   0  0  0  0  0  0  0  0  0  0  0  0
   -0.7199   -0.3820    0.9360 C   0  0  1  0  0  0  0  0  0  0  0  0
    1.3064    0.5185   -0.0540 C   0  0  1  0  0  0  0  0  0  0  0  0
    0.6586   -0.7920    0.3941 C   0  0  0  0  0  0  0  0  0  0  0  0
   -1.7876    1.7520    1.5305 C   0  0  1  0  0  0  0  0  0  0  0  0
    0.5899    1.5719    0.7797 C   0  0  0  0  0  0  0  0  0  0  0  0
   -1.5539    1.5032    3.0124 C   0  0  0  0  0  0  0  0  0  0  0  0
   -0.8775   -0.8166    2.3902 C   0  0  0  0  0  0  0  0  0  0  0  0
   -1.8716    3.2495    1.2319 C   0  0  0  0  0  0  0  0  0  0  0  0
   -2.0628    3.5042   -0.2569 C   0  0  0  0  0  0  0  0  0  0  0  0
    3.4096   -0.1920   -0.9662 C   0  0  0  0  0  0  0  0  0  0  0  0
   -3.3460    2.8865   -0.7828 C   0  0  0  0  0  0  0  0  0  0  0  0
    4.9021   -0.2069   -0.8040 C   0  0  0  0  0  0  0  0  0  0  0  0
    5.6463    0.9387   -1.0863 C   0  0  0  0  0  0  0  0  0  0  0  0
    5.5446   -1.3666   -0.3706 C   0  0  0  0  0  0  0  0  0  0  0  0
   -4.1523    1.2303   -2.4424 C   0  0  0  0  0  0  0  0  0  0  0  0
    7.0328    0.9245   -0.9354 C   0  0  0  0  0  0  0  0  0  0  0  0
    6.9312   -1.3809   -0.2196 C   0  0  0  0  0  0  0  0  0  0  0  0
    7.6752   -0.2354   -0.5021 C   0  0  0  0  0  0  0  0  0  0  0  0
   -4.4711   -0.0584   -1.7412 C   0  0  0  0  0  0  0  0  0  0  0  0
   -3.6139   -1.1517   -1.8663 C   0  0  0  0  0  0  0  0  0  0  0  0
   -5.6248   -0.1622   -0.9640 C   0  0  0  0  0  0  0  0  0  0  0  0
   -3.9103   -2.3487   -1.2144 C   0  0  0  0  0  0  0  0  0  0  0  0
   -5.9214   -1.3591   -0.3123 C   0  0  0  0  0  0  0  0  0  0  0  0
    9.6201   -1.4681    0.0926 C   0  0  0  0  0  0  0  0  0  0  0  0
   -5.0642   -2.4524   -0.4375 C   0  0  0  0  0  0  0  0  0  0  0  0
   -4.4327   -4.6972    0.0287 C   0  0  0  0  0  0  0  0  0  0  0  0
   -1.5181   -0.8701    0.3670 H   0  0  0  0  0  0  0  0  0  0  0  0
    1.0492    0.7056   -1.1078 H   0  0  0  0  0  0  0  0  0  0  0  0
    0.5643   -1.4794   -0.4545 H   0  0  0  0  0  0  0  0  0  0  0  0
    1.2675   -1.2896    1.1588 H   0  0  0  0  0  0  0  0  0  0  0  0
   -2.7591    1.3045    1.2776 H   0  0  0  0  0  0  0  0  0  0  0  0
    0.7082    2.5653    0.3368 H   0  0  0  0  0  0  0  0  0  0  0  0
    0.9812    1.5971    1.8041 H   0  0  0  0  0  0  0  0  0  0  0  0
   -0.6697    2.0305    3.3869 H   0  0  0  0  0  0  0  0  0  0  0  0
   -2.4129    1.8377    3.6042 H   0  0  0  0  0  0  0  0  0  0  0  0
   -0.9721    3.7736    1.5769 H   0  0  0  0  0  0  0  0  0  0  0  0
   -2.7140    3.6792    1.7891 H   0  0  0  0  0  0  0  0  0  0  0  0
   -1.4832   -0.2084    4.2527 H   0  0  0  0  0  0  0  0  0  0  0  0
    3.0779    1.4947    0.1190 H   0  0  0  0  0  0  0  0  0  0  0  0
   -2.1475    4.5854   -0.4244 H   0  0  0  0  0  0  0  0  0  0  0  0
   -1.1961    3.1834   -0.8424 H   0  0  0  0  0  0  0  0  0  0  0  0
    3.1736    0.2642   -1.9370 H   0  0  0  0  0  0  0  0  0  0  0  0
    3.0434   -1.2251   -1.0163 H   0  0  0  0  0  0  0  0  0  0  0  0
   -2.1381    1.7492   -2.0530 H   0  0  0  0  0  0  0  0  0  0  0  0
    5.1575    1.8481   -1.4260 H   0  0  0  0  0  0  0  0  0  0  0  0
    4.9767   -2.2654   -0.1449 H   0  0  0  0  0  0  0  0  0  0  0  0
   -3.8238    1.0259   -3.4679 H   0  0  0  0  0  0  0  0  0  0  0  0
   -5.0414    1.8677   -2.5136 H   0  0  0  0  0  0  0  0  0  0  0  0
    7.6073    1.8198   -1.1570 H   0  0  0  0  0  0  0  0  0  0  0  0
    7.3655   -2.3146    0.1212 H   0  0  0  0  0  0  0  0  0  0  0  0
   -2.7111   -1.0808   -2.4675 H   0  0  0  0  0  0  0  0  0  0  0  0
   -6.3005    0.6820   -0.8562 H   0  0  0  0  0  0  0  0  0  0  0  0
   -3.2006   -3.1570   -1.3532 H   0  0  0  0  0  0  0  0  0  0  0  0
   -6.8211   -1.4338    0.2922 H   0  0  0  0  0  0  0  0  0  0  0  0
   10.7002   -1.2994    0.1537 H   0  0  0  0  0  0  0  0  0  0  0  0
    9.4634   -2.2787   -0.6271 H   0  0  0  0  0  0  0  0  0  0  0  0
    9.2808   -1.7350    1.0992 H   0  0  0  0  0  0  0  0  0  0  0  0
   -4.8182   -5.5457    0.6036 H   0  0  0  0  0  0  0  0  0  0  0  0
   -3.4474   -4.4534    0.4405 H   0  0  0  0  0  0  0  0  0  0  0  0
   -4.3779   -5.0181   -1.0171 H   0  0  0  0  0  0  0  0  0  0  0  0
  1 15  2  0  0  0  0
  2 19  2  0  0  0  0
  3 26  1  0  0  0  0
  3 32  1  0  0  0  0
  4 33  1  0  0  0  0
  4 34  1  0  0  0  0
  5  9  1  0  0  0  0
  5 12  1  0  0  0  0
  5 13  1  0  0  0  0
  6 14  1  0  0  0  0
  6 15  1  0  0  0  0
  6 46  1  0  0  0  0
  7 10  1  0  0  0  0
  7 18  1  0  0  0  0
  7 47  1  0  0  0  0
  8 19  1  0  0  0  0
  8 23  1  0  0  0  0
  8 52  1  0  0  0  0
  9 11  1  0  0  0  0
  9 15  1  0  0  0  0
  9 35  1  0  0  0  0
 10 11  1  0  0  0  0
 10 13  1  0  0  0  0
 10 36  1  0  0  0  0
 11 37  1  0  0  0  0
 11 38  1  0  0  0  0
 12 14  1  0  0  0  0
 12 16  1  0  0  0  0
 12 39  1  0  0  0  0
 13 40  1  0  0  0  0
 13 41  1  0  0  0  0
 14 42  1  0  0  0  0
 14 43  1  0  0  0  0
 16 17  1  0  0  0  0
 16 44  1  0  0  0  0
 16 45  1  0  0  0  0
 17 19  1  0  0  0  0
 17 48  1  0  0  0  0
 17 49  1  0  0  0  0
 18 20  1  0  0  0  0
 18 50  1  0  0  0  0
 18 51  1  0  0  0  0
 20 21  2  0  0  0  0
 20 22  1  0  0  0  0
 21 24  1  0  0  0  0
 21 53  1  0  0  0  0
 22 25  2  0  0  0  0
 22 54  1  0  0  0  0
 23 27  1  0  0  0  0
 23 55  1  0  0  0  0
 23 56  1  0  0  0  0
 24 26  2  0  0  0  0
 24 57  1  0  0  0  0
 25 26  1  0  0  0  0
 25 58  1  0  0  0  0
 27 28  2  0  0  0  0
 27 29  1  0  0  0  0
 28 30  1  0  0  0  0
 28 59  1  0  0  0  0
 29 31  2  0  0  0  0
 29 60  1  0  0  0  0
 30 33  2  0  0  0  0
 30 61  1  0  0  0  0
 31 33  1  0  0  0  0
 31 62  1  0  0  0  0
 32 63  1  0  0  0  0
 32 64  1  0  0  0  0
 32 65  1  0  0  0  0
 34 66  1  0  0  0  0
 34 67  1  0  0  0  0
 34 68  1  0  0  0  0
M  END
> <PUBCHEM_COMPOUND_CID>
45360663

> <PUBCHEM_CONFORMER_RMSD>
1.2

> <PUBCHEM_CONFORMER_DIVERSEORDER>
1
94
28
105
102
20
35
61
56
127
114
63
73
68
54
6
119
75
69
60
123
81
113
96
40
98
67
112
128
99
89
76
31
43
18
49
90
39
48
79
46
72
78
106
126
19
51
27
111
59
70
26
74
125
95
34
25
8
108
30
118
11
45
12
120
93
57
66
107
87
122
5
52
14
36
116
16
121
15
55
42
97
109
32
77
110
29
47
88
103
7
64
101
58
82
100
13
84
115
53
37
71
124
44
83
9
117
85
91
92
104
86
17
38
3
41
10
21
33
22
65
23
50
62
2
24
80
4

> <PUBCHEM_MMFF94_PARTIAL_CHARGES>
43
1 -0.57
10 0.27
12 0.27
13 0.27
14 0.3
15 0.57
17 0.06
18 0.41
19 0.57
2 -0.57
20 -0.14
21 -0.15
22 -0.15
23 0.44
24 -0.15
25 -0.15
26 0.08
27 -0.14
28 -0.15
29 -0.15
3 -0.36
30 -0.15
31 -0.15
32 0.28
33 0.08
34 0.28
4 -0.36
46 0.37
47 0.36
5 -0.81
52 0.37
53 0.15
54 0.15
57 0.15
58 0.15
59 0.15
6 -0.73
60 0.15
61 0.15
62 0.15
7 -0.9
8 -0.73
9 0.33

> <PUBCHEM_EFFECTIVE_ROTOR_COUNT>
12.2

> <PUBCHEM_PHARMACOPHORE_FEATURES>
13
1 1 acceptor
1 2 acceptor
1 3 acceptor
1 4 acceptor
1 5 cation
1 6 donor
1 7 cation
1 7 donor
1 8 donor
5 5 9 10 11 13 rings
6 20 21 22 24 25 26 rings
6 27 28 29 30 31 33 rings
6 5 6 9 12 14 15 rings

> <PUBCHEM_HEAVY_ATOM_COUNT>
34

> <PUBCHEM_ATOM_DEF_STEREO_COUNT>
3

> <PUBCHEM_ATOM_UDEF_STEREO_COUNT>
0

> <PUBCHEM_BOND_DEF_STEREO_COUNT>
0

> <PUBCHEM_BOND_UDEF_STEREO_COUNT>
0

> <PUBCHEM_ISOTOPIC_ATOM_COUNT>
0

> <PUBCHEM_COMPONENT_COUNT>
1

> <PUBCHEM_CACTVS_TAUTO_COUNT>
6

> <PUBCHEM_CONFORMER_ID>
02B4261700000001

> <PUBCHEM_MMFF94_ENERGY>
92.6641

> <PUBCHEM_FEATURE_SELFOVERLAP>
66.161

> <PUBCHEM_SHAPE_FINGERPRINT>
10462385 53 15051736378904870516
10554248 39 17240774939585556286
10577160 103 18189897694280635812
10577160 183 16370716016595498288
10674148 151 18131627864564749785
12373685 5 18114455662240407882
12422481 6 9943528539750860200
12988421 55 12324519762983186197
13941219 33 13038912113948887172
14040222 275 17240778233878071206
14279260 333 18335134259356634838
14340393 91 18409730694694026784
14932701 244 18409735053843174271
15183329 4 17167576090710442398
15338160 23 9511457818679835034
15513586 35 11893064875729307143
17686467 74 18060692902343568624
20101258 96 14692564386350996000
4015057 19 18261118499840426956
44426699 300 18119262889637559747
4938544 92 8862939476644162948
5080951 261 17989210313044831715
6086070 43 15357981213516783596
70634741 139 18272086089466162262
77296 10 18341049602049382294

> <PUBCHEM_SHAPE_MULTIPOLES>
656.3
21.33
4.06
2.37
58.95
1.07
-1.73
12.54
9.58
-9.18
-0.33
-2.86
-0.58
-0.03

> <PUBCHEM_SHAPE_SELFOVERLAP>
1387.893

> <PUBCHEM_SHAPE_VOLUME>
367.8

> <PUBCHEM_COORDINATE_TYPE>
2
5
10

$$$$
