28959840
  -OEChem-12032416143D

 66 68  0     1  0  0  0  0  0999 V2000
   -2.4028   -3.2019    1.3080 O   0  0  0  0  0  0  0  0  0  0  0  0
   -4.5262    4.7644    0.4917 O   0  0  0  0  0  0  0  0  0  0  0  0
   -5.6983    2.9159   -0.1328 O   0  0  0  0  0  0  0  0  0  0  0  0
    6.3914    2.0689   -1.1719 O   0  0  0  0  0  0  0  0  0  0  0  0
   -2.6202   -1.4294   -0.1780 N   0  0  0  0  0  0  0  0  0  0  0  0
    1.6415    1.3258    0.0009 N   0  0  1  0  0  0  0  0  0  0  0  0
    4.8384    1.2577    0.3663 N   0  0  0  0  0  0  0  0  0  0  0  0
   -2.0102    0.8464   -0.9669 C   0  0  2  0  0  0  0  0  0  0  0  0
   -3.3396    1.3706   -0.3662 C   0  0  1  0  0  0  0  0  0  0  0  0
   -2.1509   -0.6439   -1.3266 C   0  0  0  0  0  0  0  0  0  0  0  0
   -3.8195    0.4896    0.7997 C   0  0  0  0  0  0  0  0  0  0  0  0
   -0.7899    1.0634   -0.0634 C   0  0  0  0  0  0  0  0  0  0  0  0
   -3.8900   -0.9798    0.3921 C   0  0  0  0  0  0  0  0  0  0  0  0
   -0.6768   -2.9376   -0.2804 C   0  0  0  0  0  0  0  0  0  0  0  0
   -3.2696    2.8369    0.0595 C   0  0  0  0  0  0  0  0  0  0  0  0
   -1.9735   -2.5426    0.3576 C   0  0  0  0  0  0  0  0  0  0  0  0
    0.4886    1.1356   -0.8859 C   0  0  0  0  0  0  0  0  0  0  0  0
   -0.9225   -3.9614   -1.3944 C   0  0  0  0  0  0  0  0  0  0  0  0
    0.2381   -3.6227    0.7361 C   0  0  0  0  0  0  0  0  0  0  0  0
   -0.0640   -5.1722   -1.0442 C   0  0  0  0  0  0  0  0  0  0  0  0
    0.0654   -5.1107    0.4671 C   0  0  0  0  0  0  0  0  0  0  0  0
    2.0079    0.0452    0.6216 C   0  0  0  0  0  0  0  0  0  0  0  0
    2.7373    1.9601   -0.7435 C   0  0  0  0  0  0  0  0  0  0  0  0
   -4.6351    3.4643    0.1155 C   0  0  0  0  0  0  0  0  0  0  0  0
    3.0019    0.1925    1.7769 C   0  0  0  0  0  0  0  0  0  0  0  0
    3.9175    2.3704    0.1377 C   0  0  0  0  0  0  0  0  0  0  0  0
    4.4641    0.2286    1.3387 C   0  0  0  0  0  0  0  0  0  0  0  0
    6.0446    1.2201   -0.3467 C   0  0  0  0  0  0  0  0  0  0  0  0
    6.9525    0.0457   -0.0684 C   0  0  0  0  0  0  0  0  0  0  0  0
   -1.8494    1.3993   -1.9029 H   0  0  0  0  0  0  0  0  0  0  0  0
   -4.0885    1.2791   -1.1670 H   0  0  0  0  0  0  0  0  0  0  0  0
   -2.9253   -0.7507   -2.0983 H   0  0  0  0  0  0  0  0  0  0  0  0
   -1.2437   -1.0294   -1.7871 H   0  0  0  0  0  0  0  0  0  0  0  0
   -4.8066    0.8071    1.1526 H   0  0  0  0  0  0  0  0  0  0  0  0
   -3.1311    0.5927    1.6482 H   0  0  0  0  0  0  0  0  0  0  0  0
   -0.7565    0.2860    0.7048 H   0  0  0  0  0  0  0  0  0  0  0  0
   -0.8750    2.0108    0.4798 H   0  0  0  0  0  0  0  0  0  0  0  0
   -4.1660   -1.5889    1.2587 H   0  0  0  0  0  0  0  0  0  0  0  0
   -4.6632   -1.1292   -0.3708 H   0  0  0  0  0  0  0  0  0  0  0  0
   -0.1226   -2.0680   -0.6348 H   0  0  0  0  0  0  0  0  0  0  0  0
   -2.8077    2.9415    1.0473 H   0  0  0  0  0  0  0  0  0  0  0  0
   -2.6852    3.4076   -0.6720 H   0  0  0  0  0  0  0  0  0  0  0  0
    0.3872    1.9940   -1.5635 H   0  0  0  0  0  0  0  0  0  0  0  0
    0.6235    0.2535   -1.5229 H   0  0  0  0  0  0  0  0  0  0  0  0
   -0.6462   -3.5599   -2.3752 H   0  0  0  0  0  0  0  0  0  0  0  0
   -1.9776   -4.2552   -1.4526 H   0  0  0  0  0  0  0  0  0  0  0  0
    0.0367   -3.3661    1.7809 H   0  0  0  0  0  0  0  0  0  0  0  0
    1.2804   -3.3440    0.5323 H   0  0  0  0  0  0  0  0  0  0  0  0
    0.9239   -5.0759   -1.5104 H   0  0  0  0  0  0  0  0  0  0  0  0
   -0.5097   -6.1101   -1.3879 H   0  0  0  0  0  0  0  0  0  0  0  0
   -0.8471   -5.4858    0.9444 H   0  0  0  0  0  0  0  0  0  0  0  0
    0.9110   -5.6988    0.8350 H   0  0  0  0  0  0  0  0  0  0  0  0
    2.3913   -0.6627   -0.1253 H   0  0  0  0  0  0  0  0  0  0  0  0
    1.1242   -0.4270    1.0615 H   0  0  0  0  0  0  0  0  0  0  0  0
    2.3544    2.8881   -1.1881 H   0  0  0  0  0  0  0  0  0  0  0  0
    3.0742    1.3223   -1.5714 H   0  0  0  0  0  0  0  0  0  0  0  0
    2.8820   -0.6696    2.4463 H   0  0  0  0  0  0  0  0  0  0  0  0
    2.7547    1.0720    2.3840 H   0  0  0  0  0  0  0  0  0  0  0  0
    4.4554    3.1784   -0.3718 H   0  0  0  0  0  0  0  0  0  0  0  0
    3.6001    2.7858    1.1010 H   0  0  0  0  0  0  0  0  0  0  0  0
    5.0966    0.3826    2.2210 H   0  0  0  0  0  0  0  0  0  0  0  0
    4.7278   -0.7514    0.9264 H   0  0  0  0  0  0  0  0  0  0  0  0
   -5.4010    5.2059    0.5390 H   0  0  0  0  0  0  0  0  0  0  0  0
    6.5113   -0.8705   -0.4693 H   0  0  0  0  0  0  0  0  0  0  0  0
    7.1374   -0.0580    1.0036 H   0  0  0  0  0  0  0  0  0  0  0  0
    7.9158    0.2084   -0.5616 H   0  0  0  0  0  0  0  0  0  0  0  0
  1 16  2  0  0  0  0
  2 24  1  0  0  0  0
  2 63  1  0  0  0  0
  3 24  2  0  0  0  0
  4 28  2  0  0  0  0
  5 10  1  0  0  0  0
  5 13  1  0  0  0  0
  5 16  1  0  0  0  0
  6 17  1  0  0  0  0
  6 22  1  0  0  0  0
  6 23  1  0  0  0  0
  7 26  1  0  0  0  0
  7 27  1  0  0  0  0
  7 28  1  0  0  0  0
  8  9  1  0  0  0  0
  8 10  1  0  0  0  0
  8 12  1  0  0  0  0
  8 30  1  0  0  0  0
  9 11  1  0  0  0  0
  9 15  1  0  0  0  0
  9 31  1  0  0  0  0
 10 32  1  0  0  0  0
 10 33  1  0  0  0  0
 11 13  1  0  0  0  0
 11 34  1  0  0  0  0
 11 35  1  0  0  0  0
 12 17  1  0  0  0  0
 12 36  1  0  0  0  0
 12 37  1  0  0  0  0
 13 38  1  0  0  0  0
 13 39  1  0  0  0  0
 14 16  1  0  0  0  0
 14 18  1  0  0  0  0
 14 19  1  0  0  0  0
 14 40  1  0  0  0  0
 15 24  1  0  0  0  0
 15 41  1  0  0  0  0
 15 42  1  0  0  0  0
 17 43  1  0  0  0  0
 17 44  1  0  0  0  0
 18 20  1  0  0  0  0
 18 45  1  0  0  0  0
 18 46  1  0  0  0  0
 19 21  1  0  0  0  0
 19 47  1  0  0  0  0
 19 48  1  0  0  0  0
 20 21  1  0  0  0  0
 20 49  1  0  0  0  0
 20 50  1  0  0  0  0
 21 51  1  0  0  0  0
 21 52  1  0  0  0  0
 22 25  1  0  0  0  0
 22 53  1  0  0  0  0
 22 54  1  0  0  0  0
 23 26  1  0  0  0  0
 23 55  1  0  0  0  0
 23 56  1  0  0  0  0
 25 27  1  0  0  0  0
 25 57  1  0  0  0  0
 25 58  1  0  0  0  0
 26 59  1  0  0  0  0
 26 60  1  0  0  0  0
 27 61  1  0  0  0  0
 27 62  1  0  0  0  0
 28 29  1  0  0  0  0
 29 64  1  0  0  0  0
 29 65  1  0  0  0  0
 29 66  1  0  0  0  0
M  END
> <PUBCHEM_COMPOUND_CID>
28959840

> <PUBCHEM_CONFORMER_RMSD>
1.2

> <PUBCHEM_CONFORMER_DIVERSEORDER>
1
113
105
151
141
23
92
66
88
132
102
34
95
19
169
71
134
76
154
116
103
130
72
7
37
104
59
110
115
79
145
87
156
124
42
129
120
57
137
127
152
30
86
89
18
150
65
136
17
131
47
128
147
44
5
45
122
97
158
106
35
111
49
81
163
135
148
138
46
24
126
73
53
33
114
55
167
107
162
166
4
61
36
39
121
165
157
108
8
82
91
48
3
153
63
16
13
100
14
43
94
161
146
117
77
149
56
32
170
22
51
101
69
144
21
83
29
99
67
85
11
25
159
74
109
41
6
78
60
40
80
15
98
160
93
10
125
168
68
70
139
118
133
54
20
155
112
142
2
38
64
140
31
12
75
62
164
58
119
96
9
84
26
143
50
27
90
52
28
123

> <PUBCHEM_MMFF94_PARTIAL_CHARGES>
21
1 -0.57
10 0.3
13 0.3
14 0.06
15 0.06
16 0.57
17 0.27
2 -0.65
22 0.27
23 0.27
24 0.66
26 0.3
27 0.3
28 0.57
29 0.06
3 -0.57
4 -0.57
5 -0.66
6 -0.81
63 0.5
7 -0.66

> <PUBCHEM_EFFECTIVE_ROTOR_COUNT>
11.6

> <PUBCHEM_PHARMACOPHORE_FEATURES>
9
1 1 acceptor
1 2 acceptor
1 3 acceptor
1 4 acceptor
1 6 cation
3 2 3 24 anion
5 14 18 19 20 21 rings
6 5 8 9 10 11 13 rings
7 6 7 22 23 25 26 27 rings

> <PUBCHEM_HEAVY_ATOM_COUNT>
29

> <PUBCHEM_ATOM_DEF_STEREO_COUNT>
2

> <PUBCHEM_ATOM_UDEF_STEREO_COUNT>
0

> <PUBCHEM_BOND_DEF_STEREO_COUNT>
0

> <PUBCHEM_BOND_UDEF_STEREO_COUNT>
0

> <PUBCHEM_ISOTOPIC_ATOM_COUNT>
0

> <PUBCHEM_COMPONENT_COUNT>
1

> <PUBCHEM_CACTVS_TAUTO_COUNT>
1

> <PUBCHEM_CONFORMER_ID>
01B9E46000000001

> <PUBCHEM_MMFF94_ENERGY>
60.1458

> <PUBCHEM_FEATURE_SELFOVERLAP>
45.729

> <PUBCHEM_SHAPE_FINGERPRINT>
107951 10 18342460335117209286
10940486 97 18262807401050291268
11014199 57 17471574807755834602
11049842 53 18118150020323097244
11513181 2 18344142596867796390
11552529 35 18048868882345182596
12107183 9 18190450576808993344
12166972 35 12175608590790235936
12788726 201 18193265519554364891
14251757 5 18267025149250023514
14659021 117 17982434186265814962
14790565 3 18409731733902396128
14849402 71 17620763786742875305
15042514 8 18048882093638802215
15230672 131 18409453549651707182
15439362 3 17977666403596362429
15684973 49 18412826915153667285
15927050 60 18341611452623115959
167882 2 18051409570491984081
18785283 64 17905320737358353003
21033648 29 18272357685860558272
21133410 221 15455580119023904978
21133665 82 18411983534365129678
23516275 137 18044677312434947194
249999 5 18051415072355730705
3411729 13 18122342381256479273
3610482 184 17824837869675002630
38695281 34 18337673018919864216
4058900 60 18267874873579332024
508706 21 18128825325200132622
5265222 85 18411704317744631472
5385378 56 18124885560289478273
613672 6 17116047744299656466
70251023 43 16680908372085703635
9896288 288 18411145744584086699
9981440 41 18410576163480800297

> <PUBCHEM_SHAPE_MULTIPOLES>
558.39
12.56
6.9
1.22
18.06
7.6
-0.06
-15.41
-0.26
-7.57
0.47
0.45
0.5
-0.76

> <PUBCHEM_SHAPE_SELFOVERLAP>
1135.795

> <PUBCHEM_SHAPE_VOLUME>
321.3

> <PUBCHEM_COORDINATE_TYPE>
2
5
10

$$$$
