11883181
  -OEChem-12032416173D

 64 68  0     1  0  0  0  0  0999 V2000
   -0.5926    3.1984    0.2606 S   0  0  0  0  0  0  0  0  0  0  0  0
    4.7237    3.2740   -0.0829 S   0  0  0  0  0  0  0  0  0  0  0  0
   -6.8086   -1.4908   -0.7385 O   0  0  0  0  0  0  0  0  0  0  0  0
   -7.0830    0.2480    0.8881 O   0  0  0  0  0  0  0  0  0  0  0  0
    1.4430   -1.3030   -1.3962 O   0  0  0  0  0  0  0  0  0  0  0  0
    6.0911   -1.3817   -2.0925 O   0  0  0  0  0  0  0  0  0  0  0  0
    0.7219    1.0013   -0.1100 N   0  0  0  0  0  0  0  0  0  0  0  0
    2.2349   -1.9887    0.7063 N   0  0  0  0  0  0  0  0  0  0  0  0
   -2.6086   -0.9037    0.2730 C   0  0  2  0  0  0  0  0  0  0  0  0
   -3.4575    0.3004   -0.3310 C   0  0  1  0  0  0  0  0  0  0  0  0
   -5.0270    0.1440   -0.3240 C   0  0  1  0  0  0  0  0  0  0  0  0
   -1.0988   -0.7409   -0.2246 C   0  0  1  0  0  0  0  0  0  0  0  0
   -3.1601   -2.2473   -0.2707 C   0  0  0  0  0  0  0  0  0  0  0  0
   -5.4034   -1.2689   -0.8530 C   0  0  1  0  0  0  0  0  0  0  0  0
   -2.9617    1.6733    0.2097 C   0  0  0  0  0  0  0  0  0  0  0  0
   -4.6689   -2.3951   -0.1341 C   0  0  0  0  0  0  0  0  0  0  0  0
   -2.6390   -0.9439    1.8208 C   0  0  0  0  0  0  0  0  0  0  0  0
   -0.6211    0.6780   -0.0514 C   0  0  0  0  0  0  0  0  0  0  0  0
   -5.6917    0.4151    1.0438 C   0  0  0  0  0  0  0  0  0  0  0  0
   -5.6445    1.1834   -1.3020 C   0  0  0  0  0  0  0  0  0  0  0  0
   -1.4747    1.7481    0.1239 C   0  0  0  0  0  0  0  0  0  0  0  0
   -0.1131   -1.7444    0.3890 C   0  0  0  0  0  0  0  0  0  0  0  0
    1.2656   -1.6438   -0.2314 C   0  0  0  0  0  0  0  0  0  0  0  0
    0.8558    2.3001    0.0495 C   0  0  0  0  0  0  0  0  0  0  0  0
    2.1829    2.9541    0.0455 C   0  0  0  0  0  0  0  0  0  0  0  0
    3.6379   -2.0223    0.5243 C   0  0  0  0  0  0  0  0  0  0  0  0
    2.4086    4.3483    0.2093 C   0  0  0  0  0  0  0  0  0  0  0  0
    3.3517    2.2502   -0.1229 C   0  0  0  0  0  0  0  0  0  0  0  0
    3.7492    4.6608    0.1601 C   0  0  0  0  0  0  0  0  0  0  0  0
    4.1697   -1.6816   -0.7083 C   0  0  0  0  0  0  0  0  0  0  0  0
    4.4493   -2.3944    1.5832 C   0  0  0  0  0  0  0  0  0  0  0  0
    5.5527   -1.7139   -0.8871 C   0  0  0  0  0  0  0  0  0  0  0  0
    5.8323   -2.4267    1.4043 C   0  0  0  0  0  0  0  0  0  0  0  0
    6.3840   -2.0865    0.1691 C   0  0  0  0  0  0  0  0  0  0  0  0
   -3.1936    0.2976   -1.4031 H   0  0  0  0  0  0  0  0  0  0  0  0
   -1.1054   -0.9071   -1.3129 H   0  0  0  0  0  0  0  0  0  0  0  0
   -2.6837   -3.0936    0.2381 H   0  0  0  0  0  0  0  0  0  0  0  0
   -2.9028   -2.3459   -1.3335 H   0  0  0  0  0  0  0  0  0  0  0  0
   -5.1570   -1.3376   -1.9212 H   0  0  0  0  0  0  0  0  0  0  0  0
   -3.2652    1.8145    1.2524 H   0  0  0  0  0  0  0  0  0  0  0  0
   -3.3976    2.4897   -0.3755 H   0  0  0  0  0  0  0  0  0  0  0  0
   -4.9794   -3.3568   -0.5623 H   0  0  0  0  0  0  0  0  0  0  0  0
   -4.9689   -2.4447    0.9186 H   0  0  0  0  0  0  0  0  0  0  0  0
   -2.2004   -0.0497    2.2728 H   0  0  0  0  0  0  0  0  0  0  0  0
   -3.6417   -1.0584    2.2246 H   0  0  0  0  0  0  0  0  0  0  0  0
   -2.0825   -1.8056    2.2056 H   0  0  0  0  0  0  0  0  0  0  0  0
   -5.4975    1.4256    1.4167 H   0  0  0  0  0  0  0  0  0  0  0  0
   -5.3855   -0.2896    1.8116 H   0  0  0  0  0  0  0  0  0  0  0  0
   -5.1586    1.1305   -2.2834 H   0  0  0  0  0  0  0  0  0  0  0  0
   -6.7144    1.0348   -1.4766 H   0  0  0  0  0  0  0  0  0  0  0  0
   -5.5253    2.2071   -0.9313 H   0  0  0  0  0  0  0  0  0  0  0  0
   -0.4519   -2.7747    0.2400 H   0  0  0  0  0  0  0  0  0  0  0  0
   -0.0298   -1.5690    1.4679 H   0  0  0  0  0  0  0  0  0  0  0  0
   -7.2506   -0.9896   -1.4434 H   0  0  0  0  0  0  0  0  0  0  0  0
   -7.4582    1.0968    0.5987 H   0  0  0  0  0  0  0  0  0  0  0  0
    1.9215   -2.2599    1.6357 H   0  0  0  0  0  0  0  0  0  0  0  0
    1.6502    5.1066    0.3571 H   0  0  0  0  0  0  0  0  0  0  0  0
    3.4824    1.1881   -0.2690 H   0  0  0  0  0  0  0  0  0  0  0  0
    4.2031    5.6372    0.2551 H   0  0  0  0  0  0  0  0  0  0  0  0
    3.5884   -1.3828   -1.5683 H   0  0  0  0  0  0  0  0  0  0  0  0
    4.0301   -2.6608    2.5494 H   0  0  0  0  0  0  0  0  0  0  0  0
    6.4797   -2.7165    2.2269 H   0  0  0  0  0  0  0  0  0  0  0  0
    7.4629   -2.1155    0.0428 H   0  0  0  0  0  0  0  0  0  0  0  0
    7.0592   -1.4586   -2.0370 H   0  0  0  0  0  0  0  0  0  0  0  0
  1 21  1  0  0  0  0
  1 24  1  0  0  0  0
  2 28  1  0  0  0  0
  2 29  1  0  0  0  0
  3 14  1  0  0  0  0
  3 54  1  0  0  0  0
  4 19  1  0  0  0  0
  4 55  1  0  0  0  0
  5 23  2  0  0  0  0
  6 32  1  0  0  0  0
  6 64  1  0  0  0  0
  7 18  1  0  0  0  0
  7 24  2  0  0  0  0
  8 23  1  0  0  0  0
  8 26  1  0  0  0  0
  8 56  1  0  0  0  0
  9 10  1  0  0  0  0
  9 12  1  0  0  0  0
  9 13  1  0  0  0  0
  9 17  1  0  0  0  0
 10 11  1  0  0  0  0
 10 15  1  0  0  0  0
 10 35  1  0  0  0  0
 11 14  1  0  0  0  0
 11 19  1  0  0  0  0
 11 20  1  0  0  0  0
 12 18  1  0  0  0  0
 12 22  1  0  0  0  0
 12 36  1  0  0  0  0
 13 16  1  0  0  0  0
 13 37  1  0  0  0  0
 13 38  1  0  0  0  0
 14 16  1  0  0  0  0
 14 39  1  0  0  0  0
 15 21  1  0  0  0  0
 15 40  1  0  0  0  0
 15 41  1  0  0  0  0
 16 42  1  0  0  0  0
 16 43  1  0  0  0  0
 17 44  1  0  0  0  0
 17 45  1  0  0  0  0
 17 46  1  0  0  0  0
 18 21  2  0  0  0  0
 19 47  1  0  0  0  0
 19 48  1  0  0  0  0
 20 49  1  0  0  0  0
 20 50  1  0  0  0  0
 20 51  1  0  0  0  0
 22 23  1  0  0  0  0
 22 52  1  0  0  0  0
 22 53  1  0  0  0  0
 24 25  1  0  0  0  0
 25 27  1  0  0  0  0
 25 28  2  0  0  0  0
 26 30  2  0  0  0  0
 26 31  1  0  0  0  0
 27 29  2  0  0  0  0
 27 57  1  0  0  0  0
 28 58  1  0  0  0  0
 29 59  1  0  0  0  0
 30 32  1  0  0  0  0
 30 60  1  0  0  0  0
 31 33  2  0  0  0  0
 31 61  1  0  0  0  0
 32 34  2  0  0  0  0
 33 34  1  0  0  0  0
 33 62  1  0  0  0  0
 34 63  1  0  0  0  0
M  END
> <PUBCHEM_COMPOUND_CID>
11883181

> <PUBCHEM_CONFORMER_RMSD>
1

> <PUBCHEM_CONFORMER_DIVERSEORDER>
1
6
12
17
10
7
8
3
16
15
11
14
5
9
4
13
2

> <PUBCHEM_MMFF94_PARTIAL_CHARGES>
37
1 -0.08
12 0.18
14 0.28
15 0.18
18 0.05
19 0.28
2 -0.08
21 -0.14
22 0.06
23 0.57
24 0.38
26 0.12
27 -0.15
28 -0.11
29 -0.11
3 -0.68
30 -0.15
31 -0.15
32 0.08
33 -0.15
34 -0.15
4 -0.68
5 -0.57
54 0.4
55 0.4
56 0.37
57 0.15
58 0.15
59 0.15
6 -0.53
60 0.15
61 0.15
62 0.15
63 0.15
64 0.45
7 -0.57
8 -0.55

> <PUBCHEM_EFFECTIVE_ROTOR_COUNT>
7.2

> <PUBCHEM_PHARMACOPHORE_FEATURES>
13
1 3 acceptor
1 3 donor
1 4 acceptor
1 4 donor
1 5 acceptor
1 6 donor
1 7 acceptor
1 8 donor
5 1 7 18 21 24 rings
5 2 25 27 28 29 rings
6 26 30 31 32 33 34 rings
6 9 10 11 13 14 16 rings
6 9 10 12 15 18 21 rings

> <PUBCHEM_HEAVY_ATOM_COUNT>
34

> <PUBCHEM_ATOM_DEF_STEREO_COUNT>
5

> <PUBCHEM_ATOM_UDEF_STEREO_COUNT>
0

> <PUBCHEM_BOND_DEF_STEREO_COUNT>
0

> <PUBCHEM_BOND_UDEF_STEREO_COUNT>
0

> <PUBCHEM_ISOTOPIC_ATOM_COUNT>
0

> <PUBCHEM_COMPONENT_COUNT>
1

> <PUBCHEM_CACTVS_TAUTO_COUNT>
13

> <PUBCHEM_CONFORMER_ID>
00B552AD00000001

> <PUBCHEM_MMFF94_ENERGY>
109.5541

> <PUBCHEM_FEATURE_SELFOVERLAP>
66.124

> <PUBCHEM_SHAPE_FINGERPRINT>
10050765 1 18338233894757886187
10290309 65 17689447400491715968
10622 236 17843382219525285391
10675989 125 18195532708516291088
1100329 8 18409448050916551419
11963148 33 17762328515780476415
12107183 9 18269561533676272729
12107698 1 18411134706043388699
12166972 35 18201718435999292786
12516196 113 18338515240442661242
12788726 201 18044934571752968266
12977781 61 17678188289194270227
13140716 1 18409455804092461803
13533116 47 18412544348786192992
13782708 43 18040149626340939579
140371 6 18199192797597419087
14068700 675 18340483383166795544
14117953 113 18200875072068657255
14849402 71 18336270123545198092
14931854 50 18191048814751672340
15001296 14 18337386153469352050
15400415 2 17689433106666988000
15775530 1 17608391334065924507
15927050 60 18051975024416672438
16067689 302 18195531626384687399
16112460 7 18341343235946580817
18393751 57 17114942748467817737
18681886 176 18342172255098488434
19841028 212 18266454486142675507
20642791 35 18410579517776333646
20721686 56 18408324406542727088
20771845 171 17823419473030259076
21033648 29 17240471521499253743
21133665 82 17834679680356684204
21279426 13 18408316692591871229
21344244 246 18266731571155517751
21360443 120 18190460665851260060
21781055 127 16701482104059195587
22223350 30 17823151175129478203
22311459 1 18338516331649191019
23559900 14 18411128143444045801
244849 19 17750809915733558235
24771293 8 18201146699054265848
24771750 20 18190194553460403788
249057 3 18342451518525296255
249999 5 18268142235857880424
3298306 158 18195247951946539956
335352 9 18338511946914330437
3411729 13 18338796848826796780
469060 322 18197505021869337674
504579 68 17750530494400970542
5104073 3 18338245955089266611
5385378 56 18338519775775262257
59755656 215 18264489653856371940
6700243 42 17771644351816670518
67856867 119 18410570721087244983

> <PUBCHEM_SHAPE_MULTIPOLES>
673.96
16.21
5.08
1.2
6.48
5.49
-0.01
-8.32
1.31
-8.59
-0.51
-0.47
-0.68
-0.45

> <PUBCHEM_SHAPE_SELFOVERLAP>
1441.79

> <PUBCHEM_SHAPE_VOLUME>
376.3

> <PUBCHEM_COORDINATE_TYPE>
2
5
10

$$$$
