25391098
  -OEChem-12032416353D

 74 77  0     1  0  0  0  0  0999 V2000
   -2.2542    1.5930   -1.6795 O   0  0  0  0  0  0  0  0  0  0  0  0
    0.7654   -1.7597   -0.5694 O   0  0  0  0  0  0  0  0  0  0  0  0
   -2.8668   -3.1814   -3.0241 O   0  0  0  0  0  0  0  0  0  0  0  0
    3.9077   -1.3799   -1.8287 O   0  0  0  0  0  0  0  0  0  0  0  0
   -0.1225    1.2330   -0.8180 N   0  0  0  0  0  0  0  0  0  0  0  0
    2.5789    0.4472   -1.2317 N   0  0  0  0  0  0  0  0  0  0  0  0
   -1.4212   -1.5097   -1.3285 N   0  0  0  0  0  0  0  0  0  0  0  0
   -3.6547    4.7586   -0.4950 N   0  0  0  0  0  0  0  0  0  0  0  0
   -2.1861   -4.9692   -1.7536 N   0  0  0  0  0  0  0  0  0  0  0  0
    6.6361    0.9239    0.7616 N   0  0  0  0  0  0  0  0  0  0  0  0
   -2.7003   -1.6244    1.3699 C   0  0  0  0  0  0  0  0  0  0  0  0
   -3.8998   -1.4148    2.3040 C   0  0  0  0  0  0  0  0  0  0  0  0
   -1.5070   -2.2107    2.1363 C   0  0  0  0  0  0  0  0  0  0  0  0
   -3.0818   -2.5238    0.1956 C   0  0  0  0  0  0  0  0  0  0  0  0
   -3.5290   -0.5617    3.5149 C   0  0  0  0  0  0  0  0  0  0  0  0
   -1.1402   -1.3564    3.3476 C   0  0  0  0  0  0  0  0  0  0  0  0
   -2.3371   -1.1429    4.2690 C   0  0  0  0  0  0  0  0  0  0  0  0
    0.1899    0.1973   -1.8136 C   0  0  1  0  0  0  0  0  0  0  0  0
   -1.9523   -2.7513   -0.8141 C   0  0  1  0  0  0  0  0  0  0  0  0
   -1.7319    2.7074    0.3399 C   0  0  0  0  0  0  0  0  0  0  0  0
    1.6282    0.2645   -2.3263 C   0  0  0  0  0  0  0  0  0  0  0  0
    0.8948    1.4765    0.2209 C   0  0  0  0  0  0  0  0  0  0  0  0
   -1.4029    1.7972   -0.8099 C   0  0  0  0  0  0  0  0  0  0  0  0
   -3.2201    2.6299    0.6875 C   0  0  0  0  0  0  0  0  0  0  0  0
   -1.3164    4.1474    0.0313 C   0  0  0  0  0  0  0  0  0  0  0  0
    2.2910    1.6007   -0.3764 C   0  0  0  0  0  0  0  0  0  0  0  0
   -0.1028   -1.1222   -1.1596 C   0  0  0  0  0  0  0  0  0  0  0  0
   -4.0915    3.3731   -0.3262 C   0  0  0  0  0  0  0  0  0  0  0  0
   -2.2680    4.8266   -0.9548 C   0  0  0  0  0  0  0  0  0  0  0  0
   -2.3771   -3.6241   -1.9877 C   0  0  0  0  0  0  0  0  0  0  0  0
    3.6714   -0.4122   -1.1068 C   0  0  0  0  0  0  0  0  0  0  0  0
    4.6235   -0.1668   -0.0162 C   0  0  0  0  0  0  0  0  0  0  0  0
    4.4505   -0.7541    1.2323 C   0  0  0  0  0  0  0  0  0  0  0  0
    5.7228    0.6567   -0.1986 C   0  0  0  0  0  0  0  0  0  0  0  0
    5.3690   -0.5032    2.2458 C   0  0  0  0  0  0  0  0  0  0  0  0
    6.4348    0.3354    1.9620 C   0  0  0  0  0  0  0  0  0  0  0  0
   -2.4080   -0.6395    0.9839 H   0  0  0  0  0  0  0  0  0  0  0  0
   -4.2789   -2.3851    2.6496 H   0  0  0  0  0  0  0  0  0  0  0  0
   -4.7182   -0.9297    1.7587 H   0  0  0  0  0  0  0  0  0  0  0  0
   -0.6171   -2.2826    1.5085 H   0  0  0  0  0  0  0  0  0  0  0  0
   -1.7433   -3.2287    2.4717 H   0  0  0  0  0  0  0  0  0  0  0  0
   -3.4334   -3.4959    0.5657 H   0  0  0  0  0  0  0  0  0  0  0  0
   -3.9383   -2.0767   -0.3278 H   0  0  0  0  0  0  0  0  0  0  0  0
   -4.3897   -0.4849    4.1887 H   0  0  0  0  0  0  0  0  0  0  0  0
   -3.2899    0.4567    3.1850 H   0  0  0  0  0  0  0  0  0  0  0  0
   -0.7635   -0.3839    3.0068 H   0  0  0  0  0  0  0  0  0  0  0  0
   -0.3277   -1.8361    3.9049 H   0  0  0  0  0  0  0  0  0  0  0  0
   -2.0565   -0.4720    5.0887 H   0  0  0  0  0  0  0  0  0  0  0  0
   -2.6236   -2.0997    4.7224 H   0  0  0  0  0  0  0  0  0  0  0  0
   -0.4719    0.3116   -2.6810 H   0  0  0  0  0  0  0  0  0  0  0  0
   -1.1358   -3.2871   -0.3167 H   0  0  0  0  0  0  0  0  0  0  0  0
   -1.2209    2.3548    1.2407 H   0  0  0  0  0  0  0  0  0  0  0  0
    1.8757   -0.6272   -2.9122 H   0  0  0  0  0  0  0  0  0  0  0  0
    1.7458    1.1321   -2.9873 H   0  0  0  0  0  0  0  0  0  0  0  0
    0.8471    0.6349    0.9216 H   0  0  0  0  0  0  0  0  0  0  0  0
    0.7014    2.3882    0.7862 H   0  0  0  0  0  0  0  0  0  0  0  0
   -3.3769    3.0720    1.6805 H   0  0  0  0  0  0  0  0  0  0  0  0
   -3.5517    1.5869    0.7525 H   0  0  0  0  0  0  0  0  0  0  0  0
   -0.2989    4.1875   -0.3743 H   0  0  0  0  0  0  0  0  0  0  0  0
   -1.3058    4.7210    0.9674 H   0  0  0  0  0  0  0  0  0  0  0  0
    2.3587    2.4949   -1.0079 H   0  0  0  0  0  0  0  0  0  0  0  0
    3.0245    1.7105    0.4248 H   0  0  0  0  0  0  0  0  0  0  0  0
   -2.0522   -0.9147   -1.8575 H   0  0  0  0  0  0  0  0  0  0  0  0
   -4.1426    2.8689   -1.2951 H   0  0  0  0  0  0  0  0  0  0  0  0
   -5.1199    3.3863    0.0538 H   0  0  0  0  0  0  0  0  0  0  0  0
   -1.9826    5.8798   -1.0543 H   0  0  0  0  0  0  0  0  0  0  0  0
   -2.1763    4.3800   -1.9520 H   0  0  0  0  0  0  0  0  0  0  0  0
   -4.2583    5.2220   -1.1735 H   0  0  0  0  0  0  0  0  0  0  0  0
   -1.7995   -5.3239   -0.8848 H   0  0  0  0  0  0  0  0  0  0  0  0
   -2.4365   -5.6595   -2.4539 H   0  0  0  0  0  0  0  0  0  0  0  0
    3.6033   -1.4068    1.4252 H   0  0  0  0  0  0  0  0  0  0  0  0
    5.9103    1.1435   -1.1509 H   0  0  0  0  0  0  0  0  0  0  0  0
    5.2538   -0.9497    3.2267 H   0  0  0  0  0  0  0  0  0  0  0  0
    7.1788    0.5630    2.7183 H   0  0  0  0  0  0  0  0  0  0  0  0
  1 23  2  0  0  0  0
  2 27  2  0  0  0  0
  3 30  2  0  0  0  0
  4 31  2  0  0  0  0
  5 18  1  0  0  0  0
  5 22  1  0  0  0  0
  5 23  1  0  0  0  0
  6 21  1  0  0  0  0
  6 26  1  0  0  0  0
  6 31  1  0  0  0  0
  7 19  1  0  0  0  0
  7 27  1  0  0  0  0
  7 63  1  0  0  0  0
  8 28  1  0  0  0  0
  8 29  1  0  0  0  0
  8 68  1  0  0  0  0
  9 30  1  0  0  0  0
  9 69  1  0  0  0  0
  9 70  1  0  0  0  0
 10 34  1  0  0  0  0
 10 36  2  0  0  0  0
 11 12  1  0  0  0  0
 11 13  1  0  0  0  0
 11 14  1  0  0  0  0
 11 37  1  0  0  0  0
 12 15  1  0  0  0  0
 12 38  1  0  0  0  0
 12 39  1  0  0  0  0
 13 16  1  0  0  0  0
 13 40  1  0  0  0  0
 13 41  1  0  0  0  0
 14 19  1  0  0  0  0
 14 42  1  0  0  0  0
 14 43  1  0  0  0  0
 15 17  1  0  0  0  0
 15 44  1  0  0  0  0
 15 45  1  0  0  0  0
 16 17  1  0  0  0  0
 16 46  1  0  0  0  0
 16 47  1  0  0  0  0
 17 48  1  0  0  0  0
 17 49  1  0  0  0  0
 18 21  1  0  0  0  0
 18 27  1  0  0  0  0
 18 50  1  0  0  0  0
 19 30  1  0  0  0  0
 19 51  1  0  0  0  0
 20 23  1  0  0  0  0
 20 24  1  0  0  0  0
 20 25  1  0  0  0  0
 20 52  1  0  0  0  0
 21 53  1  0  0  0  0
 21 54  1  0  0  0  0
 22 26  1  0  0  0  0
 22 55  1  0  0  0  0
 22 56  1  0  0  0  0
 24 28  1  0  0  0  0
 24 57  1  0  0  0  0
 24 58  1  0  0  0  0
 25 29  1  0  0  0  0
 25 59  1  0  0  0  0
 25 60  1  0  0  0  0
 26 61  1  0  0  0  0
 26 62  1  0  0  0  0
 28 64  1  0  0  0  0
 28 65  1  0  0  0  0
 29 66  1  0  0  0  0
 29 67  1  0  0  0  0
 31 32  1  0  0  0  0
 32 33  1  0  0  0  0
 32 34  2  0  0  0  0
 33 35  2  0  0  0  0
 33 71  1  0  0  0  0
 34 72  1  0  0  0  0
 35 36  1  0  0  0  0
 35 73  1  0  0  0  0
 36 74  1  0  0  0  0
M  END
> <PUBCHEM_COMPOUND_CID>
25391098

> <PUBCHEM_CONFORMER_RMSD>
1.2

> <PUBCHEM_CONFORMER_DIVERSEORDER>
1
101
48
49
130
140
36
11
35
13
145
132
39
121
110
67
23
116
99
100
79
20
89
135
72
66
137
77
83
70
25
114
75
28
119
38
52
105
29
4
76
86
120
51
142
53
74
108
112
42
134
14
82
68
129
30
136
133
87
10
71
56
92
113
43
106
44
50
81
40
109
61
33
32
115
78
97
57
5
125
8
143
118
94
16
24
128
131
126
22
111
93
41
63
117
144
18
55
122
31
47
27
62
127
73
138
103
139
85
15
102
141
12
90
107
80
34
21
104
3
96
46
124
123
37
91
98
45
64
60
65
26
9
84
59
95
88
58
17
6
54
7
69
19
2

> <PUBCHEM_MMFF94_PARTIAL_CHARGES>
35
1 -0.57
10 -0.62
18 0.36
19 0.36
2 -0.57
20 0.06
21 0.3
22 0.3
23 0.57
26 0.3
27 0.57
28 0.27
29 0.27
3 -0.57
30 0.57
31 0.54
32 0.09
33 -0.15
34 0.16
35 -0.15
36 0.16
4 -0.57
5 -0.66
6 -0.66
63 0.37
68 0.36
69 0.37
7 -0.73
70 0.37
71 0.15
72 0.15
73 0.15
74 0.15
8 -0.9
9 -0.8

> <PUBCHEM_EFFECTIVE_ROTOR_COUNT>
13.6

> <PUBCHEM_PHARMACOPHORE_FEATURES>
13
1 1 acceptor
1 10 acceptor
1 2 acceptor
1 3 acceptor
1 4 acceptor
1 7 donor
1 8 cation
1 8 donor
1 9 donor
6 10 32 33 34 35 36 rings
6 11 12 13 15 16 17 rings
6 5 6 18 21 22 26 rings
6 8 20 24 25 28 29 rings

> <PUBCHEM_HEAVY_ATOM_COUNT>
36

> <PUBCHEM_ATOM_DEF_STEREO_COUNT>
2

> <PUBCHEM_ATOM_UDEF_STEREO_COUNT>
0

> <PUBCHEM_BOND_DEF_STEREO_COUNT>
0

> <PUBCHEM_BOND_UDEF_STEREO_COUNT>
0

> <PUBCHEM_ISOTOPIC_ATOM_COUNT>
0

> <PUBCHEM_COMPONENT_COUNT>
1

> <PUBCHEM_CACTVS_TAUTO_COUNT>
4

> <PUBCHEM_CONFORMER_ID>
01836FFA00000001

> <PUBCHEM_MMFF94_ENERGY>
79.7246

> <PUBCHEM_FEATURE_SELFOVERLAP>
65.974

> <PUBCHEM_SHAPE_FINGERPRINT>
10305334 12 17605832508519891883
11377469 6 17605012458062187710
11387372 6 17534059663015642402
11456790 92 17242762959724389777
12160290 23 18188214208343161572
12422481 6 17977705006666720723
12788726 201 17825136867369447392
131258 38 16088727803565969123
13965767 371 17481195212275964491
14028597 1 17822560647591546835
14844126 61 18409720781445433257
15815584 197 16883854592453326805
15950262 2 14906527112129587851
16114785 44 18410288107854731795
19315092 285 17481412099297308558
238918 7 17977984244292426371
3459 110 18130509755348891288
376196 1 17761492487268055125
469060 322 18270398416406143818
5171179 24 17837513859642922703
59444896 2 17610298742527716549
9981440 41 18196931076636243845

> <PUBCHEM_SHAPE_MULTIPOLES>
687.5
10.86
5.67
3.55
22.57
3.92
2.51
1.06
5.76
-10.7
-2.67
-2.5
-3.87
0

> <PUBCHEM_SHAPE_SELFOVERLAP>
1438.751

> <PUBCHEM_SHAPE_VOLUME>
380.1

> <PUBCHEM_COORDINATE_TYPE>
2
5
10

$$$$
