45784160
  -OEChem-12032416273D

 60 63  0     1  0  0  0  0  0999 V2000
    2.7017    3.1036    0.8947 O   0  0  0  0  0  0  0  0  0  0  0  0
   -1.6484   -0.4507   -0.6868 O   0  0  0  0  0  0  0  0  0  0  0  0
    3.5650    1.1956   -0.1284 N   0  0  0  0  0  0  0  0  0  0  0  0
   -1.9925   -2.4945   -1.5290 N   0  0  0  0  0  0  0  0  0  0  0  0
   -3.2041   -2.0118   -1.0709 N   0  0  0  0  0  0  0  0  0  0  0  0
   -3.9329    1.3797   -0.0353 N   0  0  0  0  0  0  0  0  0  0  0  0
   -5.7896    0.8104    1.0418 N   0  0  0  0  0  0  0  0  0  0  0  0
    1.6311   -0.6437    1.2573 C   0  0  1  0  0  0  0  0  0  0  0  0
    3.1558   -0.8700    1.1021 C   0  0  2  0  0  0  0  0  0  0  0  0
    0.8593   -1.9194    0.8870 C   0  0  0  0  0  0  0  0  0  0  0  0
    1.1410   -2.3721   -0.5581 C   0  0  2  0  0  0  0  0  0  0  0  0
    1.2625   -0.2087    2.6790 C   0  0  0  0  0  0  0  0  0  0  0  0
    3.9104    0.4633    1.0495 C   0  0  0  0  0  0  0  0  0  0  0  0
    2.6234   -2.3628   -0.8723 C   0  0  0  0  0  0  0  0  0  0  0  0
    2.7130    3.0387   -1.4569 C   0  0  0  0  0  0  0  0  0  0  0  0
    3.5102   -1.6971   -0.1114 C   0  0  0  0  0  0  0  0  0  0  0  0
    1.4322    2.6858   -2.1546 C   0  0  0  0  0  0  0  0  0  0  0  0
    1.6311    4.0680   -1.6052 C   0  0  0  0  0  0  0  0  0  0  0  0
    0.3612   -1.5201   -1.5657 C   0  0  0  0  0  0  0  0  0  0  0  0
    2.9870    2.4601   -0.1084 C   0  0  0  0  0  0  0  0  0  0  0  0
   -0.0530    0.5636    2.6750 C   0  0  0  0  0  0  0  0  0  0  0  0
    1.1752   -1.4211    3.6006 C   0  0  0  0  0  0  0  0  0  0  0  0
    3.0696   -3.1747   -2.0563 C   0  0  0  0  0  0  0  0  0  0  0  0
   -1.1138   -1.5506   -1.2846 C   0  0  0  0  0  0  0  0  0  0  0  0
   -2.9556   -0.8169   -0.5878 C   0  0  0  0  0  0  0  0  0  0  0  0
   -3.9509    0.0135   -0.0169 C   0  0  0  0  0  0  0  0  0  0  0  0
   -5.1060   -0.3143    0.6529 C   0  0  0  0  0  0  0  0  0  0  0  0
   -5.0565    1.8132    0.6119 C   0  0  0  0  0  0  0  0  0  0  0  0
   -2.9261    2.2329   -0.6234 C   0  0  0  0  0  0  0  0  0  0  0  0
    1.3180    0.1470    0.5646 H   0  0  0  0  0  0  0  0  0  0  0  0
    3.5344   -1.4239    1.9703 H   0  0  0  0  0  0  0  0  0  0  0  0
    1.1913   -2.7552    1.5183 H   0  0  0  0  0  0  0  0  0  0  0  0
   -0.2127   -1.8171    1.0755 H   0  0  0  0  0  0  0  0  0  0  0  0
    0.7839   -3.4094   -0.6338 H   0  0  0  0  0  0  0  0  0  0  0  0
    2.0235    0.4681    3.0806 H   0  0  0  0  0  0  0  0  0  0  0  0
    3.7335    1.0700    1.9417 H   0  0  0  0  0  0  0  0  0  0  0  0
    4.9914    0.2842    1.0016 H   0  0  0  0  0  0  0  0  0  0  0  0
    3.5912    3.1668   -2.0825 H   0  0  0  0  0  0  0  0  0  0  0  0
    4.5683   -1.7644   -0.3571 H   0  0  0  0  0  0  0  0  0  0  0  0
    1.4613    2.5601   -3.2299 H   0  0  0  0  0  0  0  0  0  0  0  0
    0.7219    2.0443   -1.6473 H   0  0  0  0  0  0  0  0  0  0  0  0
    1.0399    4.3500   -0.7427 H   0  0  0  0  0  0  0  0  0  0  0  0
    1.7944    4.8722   -2.3126 H   0  0  0  0  0  0  0  0  0  0  0  0
    0.5097   -1.9002   -2.5836 H   0  0  0  0  0  0  0  0  0  0  0  0
    0.7146   -0.4826   -1.5696 H   0  0  0  0  0  0  0  0  0  0  0  0
    3.7945    0.7889   -1.0309 H   0  0  0  0  0  0  0  0  0  0  0  0
   -0.2968    0.9089    3.6857 H   0  0  0  0  0  0  0  0  0  0  0  0
   -0.8924   -0.0452    2.3249 H   0  0  0  0  0  0  0  0  0  0  0  0
    0.0141    1.4486    2.0330 H   0  0  0  0  0  0  0  0  0  0  0  0
    2.0669   -2.0530    3.5534 H   0  0  0  0  0  0  0  0  0  0  0  0
    1.0944   -1.0777    4.6394 H   0  0  0  0  0  0  0  0  0  0  0  0
    0.2867   -2.0357    3.4215 H   0  0  0  0  0  0  0  0  0  0  0  0
    2.6540   -2.7689   -2.9834 H   0  0  0  0  0  0  0  0  0  0  0  0
    4.1597   -3.1851   -2.1616 H   0  0  0  0  0  0  0  0  0  0  0  0
    2.7398   -4.2133   -1.9509 H   0  0  0  0  0  0  0  0  0  0  0  0
   -5.4855   -1.3011    0.8786 H   0  0  0  0  0  0  0  0  0  0  0  0
   -5.2886    2.8617    0.7407 H   0  0  0  0  0  0  0  0  0  0  0  0
   -2.0106    2.1471   -0.0327 H   0  0  0  0  0  0  0  0  0  0  0  0
   -2.7580    1.9222   -1.6575 H   0  0  0  0  0  0  0  0  0  0  0  0
   -3.2766    3.2684   -0.6095 H   0  0  0  0  0  0  0  0  0  0  0  0
  1 20  2  0  0  0  0
  2 24  1  0  0  0  0
  2 25  1  0  0  0  0
  3 13  1  0  0  0  0
  3 20  1  0  0  0  0
  3 46  1  0  0  0  0
  4  5  1  0  0  0  0
  4 24  2  0  0  0  0
  5 25  2  0  0  0  0
  6 26  1  0  0  0  0
  6 28  1  0  0  0  0
  6 29  1  0  0  0  0
  7 27  1  0  0  0  0
  7 28  2  0  0  0  0
  8  9  1  0  0  0  0
  8 10  1  0  0  0  0
  8 12  1  0  0  0  0
  8 30  1  0  0  0  0
  9 13  1  0  0  0  0
  9 16  1  0  0  0  0
  9 31  1  0  0  0  0
 10 11  1  0  0  0  0
 10 32  1  0  0  0  0
 10 33  1  0  0  0  0
 11 14  1  0  0  0  0
 11 19  1  0  0  0  0
 11 34  1  0  0  0  0
 12 21  1  0  0  0  0
 12 22  1  0  0  0  0
 12 35  1  0  0  0  0
 13 36  1  0  0  0  0
 13 37  1  0  0  0  0
 14 16  2  0  0  0  0
 14 23  1  0  0  0  0
 15 17  1  0  0  0  0
 15 18  1  0  0  0  0
 15 20  1  0  0  0  0
 15 38  1  0  0  0  0
 16 39  1  0  0  0  0
 17 18  1  0  0  0  0
 17 40  1  0  0  0  0
 17 41  1  0  0  0  0
 18 42  1  0  0  0  0
 18 43  1  0  0  0  0
 19 24  1  0  0  0  0
 19 44  1  0  0  0  0
 19 45  1  0  0  0  0
 21 47  1  0  0  0  0
 21 48  1  0  0  0  0
 21 49  1  0  0  0  0
 22 50  1  0  0  0  0
 22 51  1  0  0  0  0
 22 52  1  0  0  0  0
 23 53  1  0  0  0  0
 23 54  1  0  0  0  0
 23 55  1  0  0  0  0
 25 26  1  0  0  0  0
 26 27  2  0  0  0  0
 27 56  1  0  0  0  0
 28 57  1  0  0  0  0
 29 58  1  0  0  0  0
 29 59  1  0  0  0  0
 29 60  1  0  0  0  0
M  END
> <PUBCHEM_COMPOUND_CID>
45784160

> <PUBCHEM_CONFORMER_RMSD>
1

> <PUBCHEM_CONFORMER_DIVERSEORDER>
1
73
125
8
49
132
67
146
57
62
66
90
148
69
23
152
127
111
35
83
65
45
110
138
87
108
115
134
40
30
79
47
91
102
129
124
71
32
126
25
63
59
58
85
112
60
6
89
142
12
121
141
56
117
153
34
36
82
86
31
38
143
84
77
10
55
150
27
19
104
61
11
51
119
113
136
4
122
97
116
72
70
106
149
140
76
145
155
93
95
114
99
68
75
98
96
50
118
139
80
43
74
2
64
28
88
100
7
131
128
54
46
22
15
48
52
18
53
154
130
21
137
147
41
13
94
105
29
151
14
133
123
107
16
42
26
78
109
3
24
9
20
92
44
144
101
5
103
39
17
81
33
135
120
37

> <PUBCHEM_MMFF94_PARTIAL_CHARGES>
33
1 -0.57
11 0.14
13 0.3
14 -0.28
15 -0.1
16 -0.29
17 -0.2
18 -0.2
19 0.18
2 -0.28
20 0.63
23 0.14
24 0.3
25 0.48
26 -0.15
27 0.08
28 0.04
29 0.26
3 -0.73
38 0.1
39 0.15
4 -0.34
40 0.1
41 0.1
42 0.1
43 0.1
46 0.37
5 -0.34
56 0.15
57 0.15
6 0.05
7 -0.57
9 0.14

> <PUBCHEM_EFFECTIVE_ROTOR_COUNT>
9.4

> <PUBCHEM_PHARMACOPHORE_FEATURES>
7
1 1 acceptor
1 3 donor
3 12 21 22 hydrophobe
3 6 7 28 cation
5 2 4 5 24 25 rings
5 6 7 26 27 28 rings
6 8 9 10 11 14 16 rings

> <PUBCHEM_HEAVY_ATOM_COUNT>
29

> <PUBCHEM_ATOM_DEF_STEREO_COUNT>
3

> <PUBCHEM_ATOM_UDEF_STEREO_COUNT>
0

> <PUBCHEM_BOND_DEF_STEREO_COUNT>
0

> <PUBCHEM_BOND_UDEF_STEREO_COUNT>
0

> <PUBCHEM_ISOTOPIC_ATOM_COUNT>
0

> <PUBCHEM_COMPONENT_COUNT>
1

> <PUBCHEM_CACTVS_TAUTO_COUNT>
2

> <PUBCHEM_CONFORMER_ID>
02BA9C6000000001

> <PUBCHEM_MMFF94_ENERGY>
43.5714

> <PUBCHEM_FEATURE_SELFOVERLAP>
35.521

> <PUBCHEM_SHAPE_FINGERPRINT>
12422481 6 18123156114471634000
12633257 1 17096634595126592048
13583140 156 17459173119815877805
13965767 371 18196905891116741176
14705955 166 13917324108421022414
151778 21 18202563982005481355
17921350 177 17754715153191570397
21033648 29 17913752939460952433
21860390 5 18186814573070198856
35225 105 16524725962363753268
392239 28 17168412882760912339
469060 322 12255531180417221360
474 4 18115302418218987996
5081480 168 18200038317770482462
6287921 2 18411417340666394788

> <PUBCHEM_SHAPE_MULTIPOLES>
560.16
9.16
4.35
2.67
13.83
3.67
-1.87
2.15
-1
-3.93
2.92
-1.61
-0.9
-0.76

> <PUBCHEM_SHAPE_SELFOVERLAP>
1180.844

> <PUBCHEM_SHAPE_VOLUME>
317.7

> <PUBCHEM_COORDINATE_TYPE>
2
5
10

$$$$
