26763465
  -OEChem-12032416383D

 64 68  0     1  0  0  0  0  0999 V2000
    4.2543    2.5475   -0.7351 S   0  0  0  0  0  0  0  0  0  0  0  0
    0.2721    1.3179    1.4893 O   0  0  0  0  0  0  0  0  0  0  0  0
    2.3554   -0.9513    2.0152 O   0  0  0  0  0  0  0  0  0  0  0  0
    4.7186    3.4709    0.2825 O   0  0  0  0  0  0  0  0  0  0  0  0
    4.1761    2.9683   -2.1209 O   0  0  0  0  0  0  0  0  0  0  0  0
    2.7519    1.9050   -0.2730 N   0  0  0  0  0  0  0  0  0  0  0  0
   -0.2002   -2.2452    0.8527 N   0  0  0  0  0  0  0  0  0  0  0  0
   -2.3115   -1.5263    0.2038 N   0  0  0  0  0  0  0  0  0  0  0  0
   -1.3939   -3.6027   -0.6052 N   0  0  0  0  0  0  0  0  0  0  0  0
   -7.4471    2.1628   -0.1801 N   0  0  0  0  0  0  0  0  0  0  0  0
    2.0475   -0.1401    0.8693 C   0  0  1  0  0  0  0  0  0  0  0  0
    0.5446    0.0604    0.8489 C   0  0  1  0  0  0  0  0  0  0  0  0
    2.6034    1.2515    1.0503 C   0  0  2  0  0  0  0  0  0  0  0  0
    0.0077   -1.0789    1.6828 C   0  0  2  0  0  0  0  0  0  0  0  0
    1.5130    1.9474    1.8412 C   0  0  0  0  0  0  0  0  0  0  0  0
    1.1345   -1.3297    2.6678 C   0  0  0  0  0  0  0  0  0  0  0  0
   -1.3526   -2.4683    0.1192 C   0  0  0  0  0  0  0  0  0  0  0  0
    5.2923    1.1175   -0.6877 C   0  0  0  0  0  0  0  0  0  0  0  0
    5.4419    0.3272   -1.8274 C   0  0  0  0  0  0  0  0  0  0  0  0
    5.9608    0.7786    0.4886 C   0  0  0  0  0  0  0  0  0  0  0  0
   -3.4188   -1.7742   -0.5263 C   0  0  0  0  0  0  0  0  0  0  0  0
   -2.5293   -3.7868   -1.3106 C   0  0  0  0  0  0  0  0  0  0  0  0
    6.2602   -0.8018   -1.7906 C   0  0  0  0  0  0  0  0  0  0  0  0
    6.7790   -0.3504    0.5254 C   0  0  0  0  0  0  0  0  0  0  0  0
   -3.5849   -2.8981   -1.3096 C   0  0  0  0  0  0  0  0  0  0  0  0
    6.9288   -1.1406   -0.6141 C   0  0  0  0  0  0  0  0  0  0  0  0
   -4.4488   -0.7670   -0.4385 C   0  0  0  0  0  0  0  0  0  0  0  0
    7.8042   -2.3475   -0.5752 C   0  0  0  0  0  0  0  0  0  0  0  0
   -5.7151   -1.1052    0.0387 C   0  0  0  0  0  0  0  0  0  0  0  0
   -4.1785    0.5441   -0.8306 C   0  0  0  0  0  0  0  0  0  0  0  0
   -6.7112   -0.1325    0.1239 C   0  0  0  0  0  0  0  0  0  0  0  0
   -5.1744    1.5168   -0.7454 C   0  0  0  0  0  0  0  0  0  0  0  0
   -6.4407    1.1787   -0.2682 C   0  0  0  0  0  0  0  0  0  0  0  0
   -8.7654    1.8221    0.3166 C   0  0  0  0  0  0  0  0  0  0  0  0
   -7.1739    3.5296   -0.5778 C   0  0  0  0  0  0  0  0  0  0  0  0
    2.4226   -0.6653   -0.0149 H   0  0  0  0  0  0  0  0  0  0  0  0
    0.1386    0.1191   -0.1661 H   0  0  0  0  0  0  0  0  0  0  0  0
    3.5332    1.2823    1.6201 H   0  0  0  0  0  0  0  0  0  0  0  0
   -0.9037   -0.8289    2.2381 H   0  0  0  0  0  0  0  0  0  0  0  0
    1.6560    1.8029    2.9177 H   0  0  0  0  0  0  0  0  0  0  0  0
    1.4417    3.0216    1.6446 H   0  0  0  0  0  0  0  0  0  0  0  0
    1.0298   -0.6914    3.5521 H   0  0  0  0  0  0  0  0  0  0  0  0
    1.2101   -2.3688    3.0027 H   0  0  0  0  0  0  0  0  0  0  0  0
    2.0168    1.7412   -0.9711 H   0  0  0  0  0  0  0  0  0  0  0  0
    0.5463   -2.9234    0.7507 H   0  0  0  0  0  0  0  0  0  0  0  0
    4.9250    0.5680   -2.7520 H   0  0  0  0  0  0  0  0  0  0  0  0
    5.8668    1.3825    1.3865 H   0  0  0  0  0  0  0  0  0  0  0  0
   -2.5677   -4.6984   -1.8972 H   0  0  0  0  0  0  0  0  0  0  0  0
    6.3690   -1.4096   -2.6850 H   0  0  0  0  0  0  0  0  0  0  0  0
    7.2973   -0.6022    1.4469 H   0  0  0  0  0  0  0  0  0  0  0  0
   -4.4756   -3.0864   -1.8962 H   0  0  0  0  0  0  0  0  0  0  0  0
    8.8265   -2.0792   -0.8597 H   0  0  0  0  0  0  0  0  0  0  0  0
    7.8231   -2.7899    0.4266 H   0  0  0  0  0  0  0  0  0  0  0  0
    7.4407   -3.1213   -1.2599 H   0  0  0  0  0  0  0  0  0  0  0  0
   -5.9444   -2.1204    0.3547 H   0  0  0  0  0  0  0  0  0  0  0  0
   -3.1979    0.8254   -1.2077 H   0  0  0  0  0  0  0  0  0  0  0  0
   -7.6790   -0.4452    0.5031 H   0  0  0  0  0  0  0  0  0  0  0  0
   -4.9146    2.5218   -1.0629 H   0  0  0  0  0  0  0  0  0  0  0  0
   -9.4332    2.6909    0.3218 H   0  0  0  0  0  0  0  0  0  0  0  0
   -8.7178    1.4599    1.3496 H   0  0  0  0  0  0  0  0  0  0  0  0
   -9.2440    1.0663   -0.3162 H   0  0  0  0  0  0  0  0  0  0  0  0
   -8.0524    4.1719   -0.4496 H   0  0  0  0  0  0  0  0  0  0  0  0
   -6.8992    3.5864   -1.6369 H   0  0  0  0  0  0  0  0  0  0  0  0
   -6.3765    3.9677    0.0328 H   0  0  0  0  0  0  0  0  0  0  0  0
  1  4  2  0  0  0  0
  1  5  2  0  0  0  0
  1  6  1  0  0  0  0
  1 18  1  0  0  0  0
  2 12  1  0  0  0  0
  2 15  1  0  0  0  0
  3 11  1  0  0  0  0
  3 16  1  0  0  0  0
  6 13  1  0  0  0  0
  6 44  1  0  0  0  0
  7 14  1  0  0  0  0
  7 17  1  0  0  0  0
  7 45  1  0  0  0  0
  8 17  1  0  0  0  0
  8 21  2  0  0  0  0
  9 17  2  0  0  0  0
  9 22  1  0  0  0  0
 10 33  1  0  0  0  0
 10 34  1  0  0  0  0
 10 35  1  0  0  0  0
 11 12  1  0  0  0  0
 11 13  1  0  0  0  0
 11 36  1  0  0  0  0
 12 14  1  0  0  0  0
 12 37  1  0  0  0  0
 13 15  1  0  0  0  0
 13 38  1  0  0  0  0
 14 16  1  0  0  0  0
 14 39  1  0  0  0  0
 15 40  1  0  0  0  0
 15 41  1  0  0  0  0
 16 42  1  0  0  0  0
 16 43  1  0  0  0  0
 18 19  2  0  0  0  0
 18 20  1  0  0  0  0
 19 23  1  0  0  0  0
 19 46  1  0  0  0  0
 20 24  2  0  0  0  0
 20 47  1  0  0  0  0
 21 25  1  0  0  0  0
 21 27  1  0  0  0  0
 22 25  2  0  0  0  0
 22 48  1  0  0  0  0
 23 26  2  0  0  0  0
 23 49  1  0  0  0  0
 24 26  1  0  0  0  0
 24 50  1  0  0  0  0
 25 51  1  0  0  0  0
 26 28  1  0  0  0  0
 27 29  2  0  0  0  0
 27 30  1  0  0  0  0
 28 52  1  0  0  0  0
 28 53  1  0  0  0  0
 28 54  1  0  0  0  0
 29 31  1  0  0  0  0
 29 55  1  0  0  0  0
 30 32  2  0  0  0  0
 30 56  1  0  0  0  0
 31 33  2  0  0  0  0
 31 57  1  0  0  0  0
 32 33  1  0  0  0  0
 32 58  1  0  0  0  0
 34 59  1  0  0  0  0
 34 60  1  0  0  0  0
 34 61  1  0  0  0  0
 35 62  1  0  0  0  0
 35 63  1  0  0  0  0
 35 64  1  0  0  0  0
M  END
> <PUBCHEM_COMPOUND_CID>
26763465

> <PUBCHEM_CONFORMER_RMSD>
1.2

> <PUBCHEM_CONFORMER_DIVERSEORDER>
1
184
185
197
138
22
41
219
71
16
208
154
216
196
73
132
175
62
207
86
195
214
179
50
44
167
32
136
144
190
14
213
114
61
135
19
5
160
94
33
81
127
192
36
59
155
107
186
27
96
101
183
21
74
90
122
121
98
162
34
181
35
204
141
18
146
12
129
188
115
49
31
142
158
169
89
157
212
156
102
128
170
106
17
193
131
28
4
99
11
194
120
130
178
201
173
51
79
168
203
7
149
139
151
80
9
87
218
63
10
199
217
123
118
37
205
40
72
88
54
125
159
161
30
165
153
8
112
65
108
77
222
66
187
95
103
117
140
206
174
47
180
76
23
210
85
223
202
209
67
191
93
83
220
119
152
182
124
24
104
100
64
15
48
189
171
215
148
198
166
78
53
46
84
82
164
52
116
60
45
177
126
221
172
200
2
110
58
3
163
224
6
150
145
57
20
137
69
147
56
70
55
43
211
75
111
133
26
134
42
113
143
29
68
92
38
97
91
13
25
105
176
39
109

> <PUBCHEM_MMFF94_PARTIAL_CHARGES>
46
1 1.45
10 -0.84
11 0.28
12 0.28
13 0.36
14 0.37
15 0.28
16 0.28
17 0.72
18 -0.01
19 -0.15
2 -0.56
20 -0.15
21 0.31
22 0.16
23 -0.15
24 -0.15
25 -0.15
26 -0.14
28 0.14
29 -0.15
3 -0.56
30 -0.15
31 -0.15
32 -0.15
33 0.1
34 0.37
35 0.37
4 -0.65
44 0.42
45 0.4
46 0.15
47 0.15
48 0.15
49 0.15
5 -0.65
50 0.15
51 0.15
55 0.15
56 0.15
57 0.15
58 0.15
6 -0.91
7 -0.87
8 -0.62
9 -0.62

> <PUBCHEM_EFFECTIVE_ROTOR_COUNT>
8.2

> <PUBCHEM_PHARMACOPHORE_FEATURES>
14
1 10 cation
1 2 acceptor
1 3 acceptor
1 4 acceptor
1 5 acceptor
1 6 donor
1 7 donor
1 8 acceptor
4 7 8 9 17 cation
5 2 11 12 13 15 rings
5 3 11 12 14 16 rings
6 18 19 20 23 24 26 rings
6 27 29 30 31 32 33 rings
6 8 9 17 21 22 25 rings

> <PUBCHEM_HEAVY_ATOM_COUNT>
35

> <PUBCHEM_ATOM_DEF_STEREO_COUNT>
4

> <PUBCHEM_ATOM_UDEF_STEREO_COUNT>
0

> <PUBCHEM_BOND_DEF_STEREO_COUNT>
0

> <PUBCHEM_BOND_UDEF_STEREO_COUNT>
0

> <PUBCHEM_ISOTOPIC_ATOM_COUNT>
0

> <PUBCHEM_COMPONENT_COUNT>
1

> <PUBCHEM_CACTVS_TAUTO_COUNT>
3

> <PUBCHEM_CONFORMER_ID>
019860C900000001

> <PUBCHEM_MMFF94_ENERGY>
106.4922

> <PUBCHEM_FEATURE_SELFOVERLAP>
71.768

> <PUBCHEM_SHAPE_FINGERPRINT>
10190108 129 17168144494713349252
10483366 6 18343023246595233554
10674148 151 18334575737946414610
10816530 90 18337386046037102178
10864689 126 18342730785562535849
11135609 201 8862649163843433110
11621639 336 17897441688416024124
1200032 147 18335705984354925547
12098696 120 18411698751989079833
12373685 5 11455894672144386171
13782708 43 17057806488711625591
13944108 23 18051972512003638073
14289585 56 17458338607417753044
14664723 55 18410859833302375989
14840074 17 16515961566379200469
15183329 4 17917161592651988696
15230672 131 18412259511045320255
15328829 1 18410572864565992570
15357212 105 16083086089329603052
15419008 42 17917438613695328134
15475509 8 18113901555117752652
15684389 69 9655282749088077870
16992727 255 18412263938950620993
21315764 119 18343585153103879334
21458453 9 11314310559328710085
21781055 127 17631453367905866115
22864921 10 18041837290954352037
23559900 14 17703501215819058427
249057 3 18410013221916664956
3459 83 18341619234934849658
3610482 184 18042977668609497142
38570 142 18040435499126726435
397830 11 8718562596606503106
4098825 35 18340488975283020566
4173938 77 17168428280345867477
437795 139 15338257099657408989
437795 51 12540701435826361486
4394409 98 17847064393635172470
444735 79 8358253735479540924
4461854 278 12252198337625725457
4756261 7 8574415514066720306
508180 173 18342737438207908625
5252454 2 18263907956649907969
613672 6 14907632254195685358
6443934 186 9511469913982947894
6523845 18 14562525194243711508
9689198 14 18040442096407223017

> <PUBCHEM_SHAPE_MULTIPOLES>
675.75
23.55
4.18
1.79
10.56
0.47
0.53
-10.76
-8.01
2.6
-1.38
-2.12
0.13
-0.47

> <PUBCHEM_SHAPE_SELFOVERLAP>
1455.501

> <PUBCHEM_SHAPE_VOLUME>
375.5

> <PUBCHEM_COORDINATE_TYPE>
2
5
10

$$$$
