11912302
  -OEChem-12032416343D

 58 60  0     1  0  0  0  0  0999 V2000
   -3.6302    1.2368    1.4937 O   0  0  0  0  0  0  0  0  0  0  0  0
   -6.1066   -2.0677   -0.5891 O   0  0  0  0  0  0  0  0  0  0  0  0
    3.2204    2.1523   -1.4566 O   0  0  0  0  0  0  0  0  0  0  0  0
   -2.2669    1.1118   -0.3594 N   0  0  0  0  0  0  0  0  0  0  0  0
   -3.8014   -0.6417    0.1736 N   0  0  0  0  0  0  0  0  0  0  0  0
    3.6022    1.4764    0.7340 N   0  0  0  0  0  0  0  0  0  0  0  0
    0.1922    0.7573   -0.2348 C   0  0  2  0  0  0  0  0  0  0  0  0
    0.3817    2.2887   -0.3814 C   0  0  1  0  0  0  0  0  0  0  0  0
   -0.8424    3.0609    0.1394 C   0  0  0  0  0  0  0  0  0  0  0  0
   -1.1411    0.3207   -0.8780 C   0  0  0  0  0  0  0  0  0  0  0  0
   -2.1216    2.5574   -0.5208 C   0  0  0  0  0  0  0  0  0  0  0  0
    0.2744    0.2587    1.2143 C   0  0  0  0  0  0  0  0  0  0  0  0
    1.6623    2.8024    0.2761 C   0  0  0  0  0  0  0  0  0  0  0  0
   -3.2556    0.6064    0.4969 C   0  0  0  0  0  0  0  0  0  0  0  0
    0.1920   -1.2514    1.2771 C   0  0  0  0  0  0  0  0  0  0  0  0
    2.8994    2.1239   -0.2716 C   0  0  0  0  0  0  0  0  0  0  0  0
   -4.5897   -1.3766    1.1615 C   0  0  0  0  0  0  0  0  0  0  0  0
   -3.9295   -1.1646   -1.1926 C   0  0  0  0  0  0  0  0  0  0  0  0
   -6.0395   -1.4670    0.7084 C   0  0  0  0  0  0  0  0  0  0  0  0
   -5.4069   -1.2829   -1.5593 C   0  0  0  0  0  0  0  0  0  0  0  0
    4.8242    0.7425    0.4967 C   0  0  0  0  0  0  0  0  0  0  0  0
    4.5598   -0.7003    0.1762 C   0  0  0  0  0  0  0  0  0  0  0  0
    4.5009   -1.6432    1.2025 C   0  0  0  0  0  0  0  0  0  0  0  0
    4.3725   -1.0979   -1.1477 C   0  0  0  0  0  0  0  0  0  0  0  0
    4.2550   -2.9836    0.9049 C   0  0  0  0  0  0  0  0  0  0  0  0
    4.1266   -2.4383   -1.4451 C   0  0  0  0  0  0  0  0  0  0  0  0
    4.0678   -3.3811   -0.4188 C   0  0  0  0  0  0  0  0  0  0  0  0
    0.9928    0.2615   -0.8006 H   0  0  0  0  0  0  0  0  0  0  0  0
    0.4594    2.4953   -1.4593 H   0  0  0  0  0  0  0  0  0  0  0  0
   -0.9223    2.9517    1.2278 H   0  0  0  0  0  0  0  0  0  0  0  0
   -0.7271    4.1316   -0.0659 H   0  0  0  0  0  0  0  0  0  0  0  0
   -1.3233   -0.7471   -0.7516 H   0  0  0  0  0  0  0  0  0  0  0  0
   -1.0994    0.5067   -1.9586 H   0  0  0  0  0  0  0  0  0  0  0  0
   -2.1053    2.7670   -1.5968 H   0  0  0  0  0  0  0  0  0  0  0  0
   -2.9913    3.0728   -0.0994 H   0  0  0  0  0  0  0  0  0  0  0  0
   -0.5152    0.6924    1.8372 H   0  0  0  0  0  0  0  0  0  0  0  0
    1.2233    0.5488    1.6700 H   0  0  0  0  0  0  0  0  0  0  0  0
    1.7794    3.8730    0.0626 H   0  0  0  0  0  0  0  0  0  0  0  0
    1.6042    2.7264    1.3672 H   0  0  0  0  0  0  0  0  0  0  0  0
    0.8638   -1.7269    0.5553 H   0  0  0  0  0  0  0  0  0  0  0  0
    0.4866   -1.5943    2.2752 H   0  0  0  0  0  0  0  0  0  0  0  0
   -0.8244   -1.6197    1.1123 H   0  0  0  0  0  0  0  0  0  0  0  0
   -4.1518   -2.3797    1.2250 H   0  0  0  0  0  0  0  0  0  0  0  0
   -4.5193   -0.9120    2.1495 H   0  0  0  0  0  0  0  0  0  0  0  0
   -3.4539   -2.1515   -1.2013 H   0  0  0  0  0  0  0  0  0  0  0  0
   -3.4329   -0.5197   -1.9206 H   0  0  0  0  0  0  0  0  0  0  0  0
    3.2620    1.5078    1.6900 H   0  0  0  0  0  0  0  0  0  0  0  0
   -6.5141   -0.4792    0.6751 H   0  0  0  0  0  0  0  0  0  0  0  0
   -6.6123   -2.0938    1.3987 H   0  0  0  0  0  0  0  0  0  0  0  0
   -5.5136   -1.7755   -2.5307 H   0  0  0  0  0  0  0  0  0  0  0  0
   -5.8793   -0.2957   -1.6302 H   0  0  0  0  0  0  0  0  0  0  0  0
    5.4416    0.8296    1.3980 H   0  0  0  0  0  0  0  0  0  0  0  0
    5.3825    1.2181   -0.3184 H   0  0  0  0  0  0  0  0  0  0  0  0
    4.6424   -1.3455    2.2381 H   0  0  0  0  0  0  0  0  0  0  0  0
    4.4178   -0.3752   -1.9576 H   0  0  0  0  0  0  0  0  0  0  0  0
    4.2079   -3.7176    1.7041 H   0  0  0  0  0  0  0  0  0  0  0  0
    3.9808   -2.7481   -2.4758 H   0  0  0  0  0  0  0  0  0  0  0  0
    3.8757   -4.4246   -0.6504 H   0  0  0  0  0  0  0  0  0  0  0  0
  1 14  2  0  0  0  0
  2 19  1  0  0  0  0
  2 20  1  0  0  0  0
  3 16  2  0  0  0  0
  4 10  1  0  0  0  0
  4 11  1  0  0  0  0
  4 14  1  0  0  0  0
  5 14  1  0  0  0  0
  5 17  1  0  0  0  0
  5 18  1  0  0  0  0
  6 16  1  0  0  0  0
  6 21  1  0  0  0  0
  6 47  1  0  0  0  0
  7  8  1  0  0  0  0
  7 10  1  0  0  0  0
  7 12  1  0  0  0  0
  7 28  1  0  0  0  0
  8  9  1  0  0  0  0
  8 13  1  0  0  0  0
  8 29  1  0  0  0  0
  9 11  1  0  0  0  0
  9 30  1  0  0  0  0
  9 31  1  0  0  0  0
 10 32  1  0  0  0  0
 10 33  1  0  0  0  0
 11 34  1  0  0  0  0
 11 35  1  0  0  0  0
 12 15  1  0  0  0  0
 12 36  1  0  0  0  0
 12 37  1  0  0  0  0
 13 16  1  0  0  0  0
 13 38  1  0  0  0  0
 13 39  1  0  0  0  0
 15 40  1  0  0  0  0
 15 41  1  0  0  0  0
 15 42  1  0  0  0  0
 17 19  1  0  0  0  0
 17 43  1  0  0  0  0
 17 44  1  0  0  0  0
 18 20  1  0  0  0  0
 18 45  1  0  0  0  0
 18 46  1  0  0  0  0
 19 48  1  0  0  0  0
 19 49  1  0  0  0  0
 20 50  1  0  0  0  0
 20 51  1  0  0  0  0
 21 22  1  0  0  0  0
 21 52  1  0  0  0  0
 21 53  1  0  0  0  0
 22 23  2  0  0  0  0
 22 24  1  0  0  0  0
 23 25  1  0  0  0  0
 23 54  1  0  0  0  0
 24 26  2  0  0  0  0
 24 55  1  0  0  0  0
 25 27  2  0  0  0  0
 25 56  1  0  0  0  0
 26 27  1  0  0  0  0
 26 57  1  0  0  0  0
 27 58  1  0  0  0  0
M  END
> <PUBCHEM_COMPOUND_CID>
11912302

> <PUBCHEM_CONFORMER_RMSD>
1.4

> <PUBCHEM_CONFORMER_DIVERSEORDER>
2
49
17
24
55
29
50
47
11
31
57
4
27
32
58
12
51
6
26
16
19
42
1
36
39
13
25
62
43
53
28
48
9
52
34
45
41
7
18
3
54
21
33
14
15
59
38
23
8
37
10
20
60
46
44
35
30
56
61
40
5
22

> <PUBCHEM_MMFF94_PARTIAL_CHARGES>
28
1 -0.57
10 0.3
11 0.3
13 0.06
14 0.69
16 0.57
17 0.3
18 0.3
19 0.28
2 -0.56
20 0.28
21 0.44
22 -0.14
23 -0.15
24 -0.15
25 -0.15
26 -0.15
27 -0.15
3 -0.57
4 -0.66
47 0.37
5 -0.66
54 0.15
55 0.15
56 0.15
57 0.15
58 0.15
6 -0.73

> <PUBCHEM_EFFECTIVE_ROTOR_COUNT>
10.4

> <PUBCHEM_PHARMACOPHORE_FEATURES>
8
1 1 acceptor
1 15 hydrophobe
1 2 acceptor
1 3 acceptor
1 6 donor
6 2 5 17 18 19 20 rings
6 22 23 24 25 26 27 rings
6 4 7 8 9 10 11 rings

> <PUBCHEM_HEAVY_ATOM_COUNT>
27

> <PUBCHEM_ATOM_DEF_STEREO_COUNT>
2

> <PUBCHEM_ATOM_UDEF_STEREO_COUNT>
0

> <PUBCHEM_BOND_DEF_STEREO_COUNT>
0

> <PUBCHEM_BOND_UDEF_STEREO_COUNT>
0

> <PUBCHEM_ISOTOPIC_ATOM_COUNT>
0

> <PUBCHEM_COMPONENT_COUNT>
1

> <PUBCHEM_CACTVS_TAUTO_COUNT>
2

> <PUBCHEM_CONFORMER_ID>
00B5C46E00000002

> <PUBCHEM_MMFF94_ENERGY>
62.377

> <PUBCHEM_FEATURE_SELFOVERLAP>
40.597

> <PUBCHEM_SHAPE_FINGERPRINT>
10928967 22 18339371751368689606
11595378 159 15626234480818766562
11991303 11 17680710320394099669
1200032 147 12607110890383397898
12107183 9 18127708040876418329
12422481 6 17703796864509456167
12596602 18 16988565744747454552
13150687 139 17972621020374074796
13533116 47 18341333400286687233
1361 2 18412828014454810834
13692114 37 17699014977183474625
13911852 28 18412261714204676895
14251740 57 18131637759953193670
14347332 77 18413386536570567941
15003188 105 18114174199763665546
15848702 151 18411983563353305433
17492 89 18339641123422543518
17857418 61 18341891913475640215
17909252 39 18410574002642537794
1813 80 18413671296527399143
19301679 30 18411426128981839497
20775438 99 18265324183076865378
21279426 13 18260540109526270141
21285901 2 17821999943742575604
23559900 14 18335689556100067809
23569914 152 17761174789090870495
2838139 119 11819266763749122431
3117164 225 18056773039209077897
314194 84 18340205314415590059
345986 75 17846504741910276273
34797466 226 16298670615616373525
44062 13 18191304866720023052
460360 51 18410859828368754949
463206 1 18197493128936394694
50009960 94 18044067113451908754
5104073 3 18272930479820661928
5309563 4 18340770347618093054
5326457 24 18128814325546196375
7970288 3 18268425927232952975

> <PUBCHEM_SHAPE_MULTIPOLES>
523.1
13.74
3.93
1.4
8.61
0.44
0.09
-12.07
0.6
-2.76
0.37
0.19
-0.52
-0.29

> <PUBCHEM_SHAPE_SELFOVERLAP>
1078.245

> <PUBCHEM_SHAPE_VOLUME>
295.8

> <PUBCHEM_COORDINATE_TYPE>
2
5
10

$$$$
