75536938
  -OEChem-12032416343D

 34 35  0     1  0  0  0  0  0999 V2000
    3.3733   -1.3107    0.5848 O   0  0  0  0  0  0  0  0  0  0  0  0
    2.4204    2.1604    0.5819 O   0  0  0  0  0  0  0  0  0  0  0  0
    0.4738   -0.8446   -0.4646 N   0  0  2  0  0  0  0  0  0  0  0  0
   -2.3856    0.8289   -0.8690 N   0  0  0  0  0  0  0  0  0  0  0  0
    0.9070    0.5534   -0.3638 C   0  0  0  0  0  0  0  0  0  0  0  0
    2.3537    0.8256    0.0780 C   0  0  2  0  0  0  0  0  0  0  0  0
    1.5006   -1.7603   -0.9638 C   0  0  0  0  0  0  0  0  0  0  0  0
    2.8663   -0.1123    1.1625 C   0  0  0  0  0  0  0  0  0  0  0  0
   -0.7545   -0.9347   -1.2551 C   0  0  0  0  0  0  0  0  0  0  0  0
    2.3757   -2.2436    0.1935 C   0  0  0  0  0  0  0  0  0  0  0  0
   -1.9442   -0.3962   -0.5057 C   0  0  0  0  0  0  0  0  0  0  0  0
    2.5028    3.1055   -0.4728 C   0  0  0  0  0  0  0  0  0  0  0  0
   -2.5184   -1.1620    0.4963 C   0  0  0  0  0  0  0  0  0  0  0  0
   -3.6164   -0.6367    1.1683 C   0  0  0  0  0  0  0  0  0  0  0  0
   -3.4547    1.3067   -0.1935 C   0  0  0  0  0  0  0  0  0  0  0  0
   -4.0997    0.6206    0.8228 C   0  0  0  0  0  0  0  0  0  0  0  0
    0.2369    1.0738    0.3335 H   0  0  0  0  0  0  0  0  0  0  0  0
    0.7718    1.0538   -1.3323 H   0  0  0  0  0  0  0  0  0  0  0  0
    3.0200    0.7244   -0.7903 H   0  0  0  0  0  0  0  0  0  0  0  0
    2.0944   -1.3076   -1.7667 H   0  0  0  0  0  0  0  0  0  0  0  0
    1.0322   -2.6603   -1.3816 H   0  0  0  0  0  0  0  0  0  0  0  0
    3.7052    0.3597    1.6868 H   0  0  0  0  0  0  0  0  0  0  0  0
    2.1096   -0.3279    1.9267 H   0  0  0  0  0  0  0  0  0  0  0  0
   -0.6512   -0.4313   -2.2257 H   0  0  0  0  0  0  0  0  0  0  0  0
   -0.9905   -1.9810   -1.4935 H   0  0  0  0  0  0  0  0  0  0  0  0
    2.9114   -3.1422   -0.1330 H   0  0  0  0  0  0  0  0  0  0  0  0
    1.7776   -2.5394    1.0647 H   0  0  0  0  0  0  0  0  0  0  0  0
    2.6188    4.0979   -0.0275 H   0  0  0  0  0  0  0  0  0  0  0  0
    1.5908    3.1150   -1.0755 H   0  0  0  0  0  0  0  0  0  0  0  0
    3.3759    2.9148   -1.1048 H   0  0  0  0  0  0  0  0  0  0  0  0
   -2.1341   -2.1419    0.7588 H   0  0  0  0  0  0  0  0  0  0  0  0
   -4.0946   -1.2057    1.9598 H   0  0  0  0  0  0  0  0  0  0  0  0
   -3.7923    2.2910   -0.5006 H   0  0  0  0  0  0  0  0  0  0  0  0
   -4.9542    1.0499    1.3332 H   0  0  0  0  0  0  0  0  0  0  0  0
  1  8  1  0  0  0  0
  1 10  1  0  0  0  0
  2  6  1  0  0  0  0
  2 12  1  0  0  0  0
  3  5  1  0  0  0  0
  3  7  1  0  0  0  0
  3  9  1  0  0  0  0
  4 11  1  0  0  0  0
  4 15  2  0  0  0  0
  5  6  1  0  0  0  0
  5 17  1  0  0  0  0
  5 18  1  0  0  0  0
  6  8  1  0  0  0  0
  6 19  1  0  0  0  0
  7 10  1  0  0  0  0
  7 20  1  0  0  0  0
  7 21  1  0  0  0  0
  8 22  1  0  0  0  0
  8 23  1  0  0  0  0
  9 11  1  0  0  0  0
  9 24  1  0  0  0  0
  9 25  1  0  0  0  0
 10 26  1  0  0  0  0
 10 27  1  0  0  0  0
 11 13  2  0  0  0  0
 12 28  1  0  0  0  0
 12 29  1  0  0  0  0
 12 30  1  0  0  0  0
 13 14  1  0  0  0  0
 13 31  1  0  0  0  0
 14 16  2  0  0  0  0
 14 32  1  0  0  0  0
 15 16  1  0  0  0  0
 15 33  1  0  0  0  0
 16 34  1  0  0  0  0
M  END
> <PUBCHEM_COMPOUND_CID>
75536938

> <PUBCHEM_CONFORMER_RMSD>
0.6

> <PUBCHEM_CONFORMER_DIVERSEORDER>
1
42
84
116
130
122
115
39
49
109
90
44
100
6
80
129
81
7
58
31
127
35
11
123
92
136
134
55
72
124
75
98
114
15
68
28
78
65
4
88
14
77
118
94
102
101
113
73
97
50
41
111
126
74
86
57
48
62
119
71
135
40
37
95
26
34
133
52
132
125
25
107
87
108
8
96
56
128
51
16
54
13
110
117
43
106
3
32
12
10
60
36
105
85
131
53
112
38
70
66
67
5
83
91
103
104
46
30
45
93
64
2
99
61
76
33
9
21
120
23
82
20
47
79
18
24
63
17
121
59
89
69
19
29
22
27

> <PUBCHEM_MMFF94_PARTIAL_CHARGES>
20
1 -0.56
10 0.28
11 0.17
12 0.28
13 -0.15
14 -0.15
15 0.16
16 -0.15
2 -0.56
3 -0.81
31 0.15
32 0.15
33 0.15
34 0.15
4 -0.62
5 0.27
6 0.28
7 0.27
8 0.28
9 0.41

> <PUBCHEM_EFFECTIVE_ROTOR_COUNT>
4.4

> <PUBCHEM_PHARMACOPHORE_FEATURES>
6
1 1 acceptor
1 2 acceptor
1 3 cation
1 4 acceptor
6 4 11 13 14 15 16 rings
7 1 3 5 6 7 8 10 rings

> <PUBCHEM_HEAVY_ATOM_COUNT>
16

> <PUBCHEM_ATOM_DEF_STEREO_COUNT>
1

> <PUBCHEM_ATOM_UDEF_STEREO_COUNT>
0

> <PUBCHEM_BOND_DEF_STEREO_COUNT>
0

> <PUBCHEM_BOND_UDEF_STEREO_COUNT>
0

> <PUBCHEM_ISOTOPIC_ATOM_COUNT>
0

> <PUBCHEM_COMPONENT_COUNT>
1

> <PUBCHEM_CACTVS_TAUTO_COUNT>
1

> <PUBCHEM_CONFORMER_ID>
04809A2A00000001

> <PUBCHEM_MMFF94_ENERGY>
50.0777

> <PUBCHEM_FEATURE_SELFOVERLAP>
30.447

> <PUBCHEM_SHAPE_FINGERPRINT>
10366900 7 18113907056554471643
10465860 228 18343303677931879392
10608611 8 18408603639277704477
10980938 120 18272653484257086701
11471102 22 18335421270282056058
11578080 2 13623798501239444071
11640471 11 17203317914587947375
12251169 10 18411135822909062735
12633257 1 18187356640644441459
12670545 47 18334861597694675799
12696612 119 18411417306401640838
14026960 21 18411140276969282397
14251764 38 18267299842669293149
14289901 80 18340488958430147155
15653759 3 18114185185809460035
15775835 57 18058452169499743433
17041 49 18337670793815718090
17804303 29 18115316553231048911
18186145 218 17917718959174571919
19049666 15 17900818249995682335
201361 129 18338517568351592544
20361792 2 14562536193264917463
20559304 39 18412831261312410268
20671657 1 18342461473452347388
20681677 76 18334850632811753341
21065199 12 18333454248617576873
21501502 16 18341609377774181503
21524375 3 17984139541832980236
21665062 11 18341051817904243072
21731516 1 13117992297385130255
22169311 14 18187085014386403603
22854114 111 18413107285769803040
23419403 2 11122235469135413316
23559900 14 17822587044365550375
251288 83 17604713416189031779
2637199 183 18193572279272689740
2748010 2 17839169719737157332
351380 180 18338792300556618157
4175511 335 9655571929045960418
49207404 50 18263089970947483451
6049 1 17894907404149037965
7097593 13 18336255765248157066
7364860 26 18411985771346342692
7615 1 17987781033896809671
81228 2 17405999453042926262
9882013 296 18265338494012364331

> <PUBCHEM_SHAPE_MULTIPOLES>
307.57
7.15
2.55
1.13
4.23
1.33
-0.02
1.28
-2.37
-2.84
0.27
0.17
-0.18
0.07

> <PUBCHEM_SHAPE_SELFOVERLAP>
627.537

> <PUBCHEM_SHAPE_VOLUME>
176

> <PUBCHEM_COORDINATE_TYPE>
2
5
10

$$$$
