44715947
  -OEChem-12032416153D

 51 53  0     1  0  0  0  0  0999 V2000
    1.9181   -1.0480    1.7107 O   0  0  0  0  0  0  0  0  0  0  0  0
    1.6879   -3.1763   -0.4454 O   0  0  0  0  0  0  0  0  0  0  0  0
   -5.0879   -0.8769    1.3738 O   0  0  0  0  0  0  0  0  0  0  0  0
    1.5983    2.3023   -1.0598 N   0  0  2  0  0  0  0  0  0  0  0  0
   -1.8594    0.6543   -1.0857 N   0  0  0  0  0  0  0  0  0  0  0  0
    3.7110   -1.2588    0.2408 N   0  0  0  0  0  0  0  0  0  0  0  0
   -2.7387    1.6665   -1.0105 N   0  0  0  0  0  0  0  0  0  0  0  0
   -3.8997    1.1520   -0.6204 N   0  0  0  0  0  0  0  0  0  0  0  0
    1.7220    1.6794    1.4638 C   0  0  2  0  0  0  0  0  0  0  0  0
    0.2519    1.9045   -0.5688 C   0  0  2  0  0  0  0  0  0  0  0  0
    2.7776    0.9097    0.6469 C   0  0  2  0  0  0  0  0  0  0  0  0
    0.3245    1.3843    0.8836 C   0  0  0  0  0  0  0  0  0  0  0  0
    2.0001    3.1780    1.2488 C   0  0  0  0  0  0  0  0  0  0  0  0
    2.5689    1.1996   -0.8500 C   0  0  0  0  0  0  0  0  0  0  0  0
    2.0470    3.4712   -0.2626 C   0  0  0  0  0  0  0  0  0  0  0  0
   -0.4360    0.9028   -1.4988 C   0  0  0  0  0  0  0  0  0  0  0  0
    2.7337   -0.5625    0.9312 C   0  0  0  0  0  0  0  0  0  0  0  0
   -2.4311   -0.5333   -0.7468 C   0  0  0  0  0  0  0  0  0  0  0  0
    3.8957   -2.6874    0.3576 C   0  0  0  0  0  0  0  0  0  0  0  0
   -3.7283   -0.1943   -0.4544 C   0  0  0  0  0  0  0  0  0  0  0  0
    3.0670   -3.4423   -0.6656 C   0  0  0  0  0  0  0  0  0  0  0  0
   -4.8359   -1.0564   -0.0224 C   0  0  0  0  0  0  0  0  0  0  0  0
    0.8684   -3.8673   -1.3783 C   0  0  0  0  0  0  0  0  0  0  0  0
   -6.1550   -1.7011    1.8124 C   0  0  0  0  0  0  0  0  0  0  0  0
    1.7599    1.4288    2.5295 H   0  0  0  0  0  0  0  0  0  0  0  0
   -0.3692    2.8119   -0.5691 H   0  0  0  0  0  0  0  0  0  0  0  0
    3.7746    1.2616    0.9486 H   0  0  0  0  0  0  0  0  0  0  0  0
   -0.4337    1.8980    1.4886 H   0  0  0  0  0  0  0  0  0  0  0  0
    0.0939    0.3167    0.9418 H   0  0  0  0  0  0  0  0  0  0  0  0
    1.2151    3.7775    1.7252 H   0  0  0  0  0  0  0  0  0  0  0  0
    2.9525    3.4604    1.7124 H   0  0  0  0  0  0  0  0  0  0  0  0
    2.2522    0.3129   -1.4110 H   0  0  0  0  0  0  0  0  0  0  0  0
    3.5286    1.4877   -1.2994 H   0  0  0  0  0  0  0  0  0  0  0  0
    3.0645    3.7541   -0.5609 H   0  0  0  0  0  0  0  0  0  0  0  0
    1.4222    4.3431   -0.4928 H   0  0  0  0  0  0  0  0  0  0  0  0
    0.0479   -0.0796   -1.5066 H   0  0  0  0  0  0  0  0  0  0  0  0
   -0.5025    1.2768   -2.5269 H   0  0  0  0  0  0  0  0  0  0  0  0
    4.3431   -0.7546   -0.3740 H   0  0  0  0  0  0  0  0  0  0  0  0
   -1.8914   -1.4697   -0.7412 H   0  0  0  0  0  0  0  0  0  0  0  0
    3.6110   -2.9904    1.3712 H   0  0  0  0  0  0  0  0  0  0  0  0
    4.9606   -2.8946    0.2152 H   0  0  0  0  0  0  0  0  0  0  0  0
    3.2546   -4.5176   -0.5674 H   0  0  0  0  0  0  0  0  0  0  0  0
    3.3409   -3.1258   -1.6791 H   0  0  0  0  0  0  0  0  0  0  0  0
   -4.5959   -2.1091   -0.2142 H   0  0  0  0  0  0  0  0  0  0  0  0
   -5.7399   -0.8029   -0.5889 H   0  0  0  0  0  0  0  0  0  0  0  0
   -0.1761   -3.6288   -1.1608 H   0  0  0  0  0  0  0  0  0  0  0  0
    1.0067   -4.9487   -1.2842 H   0  0  0  0  0  0  0  0  0  0  0  0
    1.0942   -3.5448   -2.3993 H   0  0  0  0  0  0  0  0  0  0  0  0
   -6.3090   -1.5266    2.8807 H   0  0  0  0  0  0  0  0  0  0  0  0
   -5.9118   -2.7579    1.6646 H   0  0  0  0  0  0  0  0  0  0  0  0
   -7.0791   -1.4498    1.2826 H   0  0  0  0  0  0  0  0  0  0  0  0
  1 17  2  0  0  0  0
  2 21  1  0  0  0  0
  2 23  1  0  0  0  0
  3 22  1  0  0  0  0
  3 24  1  0  0  0  0
  4 10  1  0  0  0  0
  4 14  1  0  0  0  0
  4 15  1  0  0  0  0
  5  7  1  0  0  0  0
  5 16  1  0  0  0  0
  5 18  1  0  0  0  0
  6 17  1  0  0  0  0
  6 19  1  0  0  0  0
  6 38  1  0  0  0  0
  7  8  2  0  0  0  0
  8 20  1  0  0  0  0
  9 11  1  0  0  0  0
  9 12  1  0  0  0  0
  9 13  1  0  0  0  0
  9 25  1  0  0  0  0
 10 12  1  0  0  0  0
 10 16  1  0  0  0  0
 10 26  1  0  0  0  0
 11 14  1  0  0  0  0
 11 17  1  0  0  0  0
 11 27  1  0  0  0  0
 12 28  1  0  0  0  0
 12 29  1  0  0  0  0
 13 15  1  0  0  0  0
 13 30  1  0  0  0  0
 13 31  1  0  0  0  0
 14 32  1  0  0  0  0
 14 33  1  0  0  0  0
 15 34  1  0  0  0  0
 15 35  1  0  0  0  0
 16 36  1  0  0  0  0
 16 37  1  0  0  0  0
 18 20  2  0  0  0  0
 18 39  1  0  0  0  0
 19 21  1  0  0  0  0
 19 40  1  0  0  0  0
 19 41  1  0  0  0  0
 20 22  1  0  0  0  0
 21 42  1  0  0  0  0
 21 43  1  0  0  0  0
 22 44  1  0  0  0  0
 22 45  1  0  0  0  0
 23 46  1  0  0  0  0
 23 47  1  0  0  0  0
 23 48  1  0  0  0  0
 24 49  1  0  0  0  0
 24 50  1  0  0  0  0
 24 51  1  0  0  0  0
M  END
> <PUBCHEM_COMPOUND_CID>
44715947

> <PUBCHEM_CONFORMER_RMSD>
1

> <PUBCHEM_CONFORMER_DIVERSEORDER>
1
45
67
55
59
12
43
16
14
57
40
24
56
53
38
69
54
9
64
19
26
49
58
30
37
15
8
20
32
39
25
76
28
70
27
2
61
29
42
41
66
31
4
44
5
48
68
50
21
72
13
62
3
75
60
33
6
36
74
11
23
63
65
7
51
47
46
17
73
35
34
10
22
71
18
52

> <PUBCHEM_MMFF94_PARTIAL_CHARGES>
23
1 -0.57
10 0.27
11 0.06
14 0.27
15 0.27
16 0.26
17 0.57
18 -0.3
19 0.3
2 -0.56
20 0.05
21 0.28
22 0.46
23 0.28
24 0.28
3 -0.56
38 0.37
39 0.15
4 -0.81
5 0.31
6 -0.73
7 -0.42
8 -0.23

> <PUBCHEM_EFFECTIVE_ROTOR_COUNT>
10.2

> <PUBCHEM_PHARMACOPHORE_FEATURES>
7
1 1 acceptor
1 2 acceptor
1 3 acceptor
1 4 cation
1 6 donor
5 5 7 8 18 20 rings
8 4 9 10 11 12 13 14 15 rings

> <PUBCHEM_HEAVY_ATOM_COUNT>
24

> <PUBCHEM_ATOM_DEF_STEREO_COUNT>
2

> <PUBCHEM_ATOM_UDEF_STEREO_COUNT>
1

> <PUBCHEM_BOND_DEF_STEREO_COUNT>
0

> <PUBCHEM_BOND_UDEF_STEREO_COUNT>
0

> <PUBCHEM_ISOTOPIC_ATOM_COUNT>
0

> <PUBCHEM_COMPONENT_COUNT>
1

> <PUBCHEM_CACTVS_TAUTO_COUNT>
2

> <PUBCHEM_CONFORMER_ID>
02AA4FAB00000001

> <PUBCHEM_MMFF94_ENERGY>
47.2071

> <PUBCHEM_FEATURE_SELFOVERLAP>
35.522

> <PUBCHEM_SHAPE_FINGERPRINT>
10064457 181 18054493975185109336
12035758 1 18267281284283607488
12506688 2 18196922276295460908
12623949 98 18263378017709985851
12633257 1 17846500370139632887
12778500 126 18270698501876945425
13533116 47 18341325678536810735
13911882 115 17823426070395054569
14251740 57 18114752654496147875
14251764 30 18116440249582565019
14363568 33 18413107256174491438
14863182 85 18336825385934252068
14866123 147 17118036223646256489
151778 21 18342178929055296531
15422964 175 18053365627252266844
17859628 70 18336831982270581403
19734167 9 17483919982420210818
1979834 28 18263928915926529075
20645477 70 18263620988024826405
20775530 9 18268143150279894934
21197605 99 17756152541839806219
21344244 181 18127998441279927854
21421861 104 18130525066811939745
21521721 280 18266748072584120128
21796203 349 18413112749448589930
23466295 7 17332818149495326582
23559900 14 18260257543464660981
239999 70 17386564807538472649
3117164 225 18268442235413446481
314173 41 18190171291732775068
3737641 26 17842843222562190862
44317340 157 9655308016955472619
5309563 4 18269267959159464951
6443956 14 18269549447173518940
7987 15 18334299717203818347

> <PUBCHEM_SHAPE_MULTIPOLES>
451.4
9.48
4.66
1.59
18.08
2.85
0.35
5.35
4.02
-5.79
-0.85
0.72
0
1.5

> <PUBCHEM_SHAPE_SELFOVERLAP>
929.914

> <PUBCHEM_SHAPE_VOLUME>
256.4

> <PUBCHEM_COORDINATE_TYPE>
2
5
10

$$$$
