45784171
  -OEChem-12032416243D

 42 45  0     1  0  0  0  0  0999 V2000
    8.2759    1.7606   -0.3714 Cl  0  0  0  0  0  0  0  0  0  0  0  0
    3.5461   -1.5331    0.3138 O   0  0  0  0  0  0  0  0  0  0  0  0
   -7.8540    1.0595    0.9360 O   0  0  0  0  0  0  0  0  0  0  0  0
   -8.0675   -1.0686    0.1664 O   0  0  0  0  0  0  0  0  0  0  0  0
   -0.9641   -0.2522   -0.2546 N   0  0  1  0  0  0  0  0  0  0  0  0
    3.1768    0.6917    0.0884 N   0  0  0  0  0  0  0  0  0  0  0  0
    1.1991   -0.8828    0.3953 C   0  0  1  0  0  0  0  0  0  0  0  0
    0.4723   -0.2345    1.5864 C   0  0  0  0  0  0  0  0  0  0  0  0
    0.3608   -0.4938   -0.8298 C   0  0  0  0  0  0  0  0  0  0  0  0
   -0.7104    0.5031    0.9722 C   0  0  0  0  0  0  0  0  0  0  0  0
   -1.8458    0.4571   -1.1698 C   0  0  0  0  0  0  0  0  0  0  0  0
    2.6555   -0.5036    0.2572 C   0  0  0  0  0  0  0  0  0  0  0  0
   -3.2920    0.3206   -0.7739 C   0  0  0  0  0  0  0  0  0  0  0  0
    4.5265    0.4422    0.0268 C   0  0  0  0  0  0  0  0  0  0  0  0
    4.7564   -0.9186    0.1644 C   0  0  0  0  0  0  0  0  0  0  0  0
   -3.9752   -0.8686   -1.0288 C   0  0  0  0  0  0  0  0  0  0  0  0
   -3.9486    1.3828   -0.1524 C   0  0  0  0  0  0  0  0  0  0  0  0
    5.6220    1.3010   -0.1424 C   0  0  0  0  0  0  0  0  0  0  0  0
    6.0110   -1.5152    0.1481 C   0  0  0  0  0  0  0  0  0  0  0  0
   -5.3149   -0.9954   -0.6622 C   0  0  0  0  0  0  0  0  0  0  0  0
   -5.2885    1.2559    0.2141 C   0  0  0  0  0  0  0  0  0  0  0  0
   -5.9716    0.0667   -0.0407 C   0  0  0  0  0  0  0  0  0  0  0  0
    6.9052    0.7355   -0.1642 C   0  0  0  0  0  0  0  0  0  0  0  0
    7.0932   -0.6448   -0.0216 C   0  0  0  0  0  0  0  0  0  0  0  0
   -7.3683   -0.0654    0.3426 C   0  0  0  0  0  0  0  0  0  0  0  0
    1.1414   -1.9729    0.5261 H   0  0  0  0  0  0  0  0  0  0  0  0
    1.1075    0.4436    2.1663 H   0  0  0  0  0  0  0  0  0  0  0  0
    0.1156   -1.0190    2.2655 H   0  0  0  0  0  0  0  0  0  0  0  0
    0.7574    0.4081   -1.3151 H   0  0  0  0  0  0  0  0  0  0  0  0
    0.3411   -1.3011   -1.5701 H   0  0  0  0  0  0  0  0  0  0  0  0
   -1.5680    0.5036    1.6523 H   0  0  0  0  0  0  0  0  0  0  0  0
   -0.4271    1.5428    0.7630 H   0  0  0  0  0  0  0  0  0  0  0  0
   -1.7536    0.0321   -2.1795 H   0  0  0  0  0  0  0  0  0  0  0  0
   -1.5661    1.5138   -1.2783 H   0  0  0  0  0  0  0  0  0  0  0  0
   -3.4744   -1.7032   -1.5124 H   0  0  0  0  0  0  0  0  0  0  0  0
   -3.4269    2.3138    0.0530 H   0  0  0  0  0  0  0  0  0  0  0  0
    5.4723    2.3705   -0.2528 H   0  0  0  0  0  0  0  0  0  0  0  0
    6.1455   -2.5839    0.2591 H   0  0  0  0  0  0  0  0  0  0  0  0
   -5.8294   -1.9301   -0.8694 H   0  0  0  0  0  0  0  0  0  0  0  0
   -5.7607    2.1074    0.6960 H   0  0  0  0  0  0  0  0  0  0  0  0
    8.0971   -1.0647   -0.0413 H   0  0  0  0  0  0  0  0  0  0  0  0
   -8.7961    0.9600    1.1905 H   0  0  0  0  0  0  0  0  0  0  0  0
  1 23  1  0  0  0  0
  2 12  1  0  0  0  0
  2 15  1  0  0  0  0
  3 25  1  0  0  0  0
  3 42  1  0  0  0  0
  4 25  2  0  0  0  0
  5  9  1  0  0  0  0
  5 10  1  0  0  0  0
  5 11  1  0  0  0  0
  6 12  2  0  0  0  0
  6 14  1  0  0  0  0
  7  8  1  0  0  0  0
  7  9  1  0  0  0  0
  7 12  1  0  0  0  0
  7 26  1  0  0  0  0
  8 10  1  0  0  0  0
  8 27  1  0  0  0  0
  8 28  1  0  0  0  0
  9 29  1  0  0  0  0
  9 30  1  0  0  0  0
 10 31  1  0  0  0  0
 10 32  1  0  0  0  0
 11 13  1  0  0  0  0
 11 33  1  0  0  0  0
 11 34  1  0  0  0  0
 13 16  2  0  0  0  0
 13 17  1  0  0  0  0
 14 15  2  0  0  0  0
 14 18  1  0  0  0  0
 15 19  1  0  0  0  0
 16 20  1  0  0  0  0
 16 35  1  0  0  0  0
 17 21  2  0  0  0  0
 17 36  1  0  0  0  0
 18 23  2  0  0  0  0
 18 37  1  0  0  0  0
 19 24  2  0  0  0  0
 19 38  1  0  0  0  0
 20 22  2  0  0  0  0
 20 39  1  0  0  0  0
 21 22  1  0  0  0  0
 21 40  1  0  0  0  0
 22 25  1  0  0  0  0
 23 24  1  0  0  0  0
 24 41  1  0  0  0  0
M  END
> <PUBCHEM_COMPOUND_CID>
45784171

> <PUBCHEM_CONFORMER_RMSD>
0.8

> <PUBCHEM_CONFORMER_DIVERSEORDER>
1
47
46
25
31
51
19
35
40
49
3
28
37
43
33
48
11
12
39
27
53
9
30
7
44
36
2
29
14
52
38
32
20
41
6
4
26
13
21
17
54
8
15
10
34
22
42
5
50
24
45
18
16
23

> <PUBCHEM_MMFF94_PARTIAL_CHARGES>
32
1 -0.18
10 0.27
11 0.41
12 0.3
13 -0.14
14 0.23
15 0.14
16 -0.15
17 -0.15
18 -0.15
19 -0.15
2 -0.28
20 -0.15
21 -0.15
22 0.09
23 0.18
24 -0.15
25 0.63
3 -0.65
35 0.15
36 0.15
37 0.15
38 0.15
39 0.15
4 -0.57
40 0.15
41 0.15
42 0.5
5 -0.81
6 -0.57
7 0.18
9 0.27

> <PUBCHEM_EFFECTIVE_ROTOR_COUNT>
5

> <PUBCHEM_PHARMACOPHORE_FEATURES>
8
1 3 acceptor
1 4 acceptor
1 5 cation
3 3 4 25 anion
5 2 6 12 14 15 rings
5 5 7 8 9 10 rings
6 13 16 17 20 21 22 rings
6 14 15 18 19 23 24 rings

> <PUBCHEM_HEAVY_ATOM_COUNT>
25

> <PUBCHEM_ATOM_DEF_STEREO_COUNT>
1

> <PUBCHEM_ATOM_UDEF_STEREO_COUNT>
0

> <PUBCHEM_BOND_DEF_STEREO_COUNT>
0

> <PUBCHEM_BOND_UDEF_STEREO_COUNT>
0

> <PUBCHEM_ISOTOPIC_ATOM_COUNT>
0

> <PUBCHEM_COMPONENT_COUNT>
1

> <PUBCHEM_CACTVS_TAUTO_COUNT>
1

> <PUBCHEM_CONFORMER_ID>
02BA9C6B00000001

> <PUBCHEM_MMFF94_ENERGY>
55.9382

> <PUBCHEM_FEATURE_SELFOVERLAP>
40.772

> <PUBCHEM_SHAPE_FINGERPRINT>
10 15 18272654545852532679
10299344 5 18272087206089282335
10595046 47 18410571752042809408
106641 1 18260553338326027091
10883706 142 18186796994485981128
11315181 36 18410575081534072225
11638347 137 15936402326564832440
11646440 116 17022625264864911180
11724838 91 17821729459512919214
12166972 35 18333732412365114364
12236239 1 18272930510301734998
12516196 113 16588023502449709821
12730499 353 17894910699006476650
12838862 33 15936400170459548995
13073987 5 16660915578478853612
13533116 47 16805875183749528018
14123256 10 16877661258075327755
14170010 4 18040716983241984876
14251764 18 18131911563980818999
14251764 46 17458062668748194955
14671636 106 18338797948687103871
14849402 71 18335706095492273412
14856354 85 17704072923975323213
14933364 13 18413388730655446852
15183329 4 16272211890031774010
15419008 47 15864065485963007485
15690457 1 11241969300086835568
15716309 27 18410009923260657023
15728490 51 18187366584258985931
1577012 14 18273207612722293782
18006028 8 10735879473683013282
18335252 98 18408888446790457618
19489759 90 11097855177420896975
20157964 124 18334012792504368290
20735858 18 15285356223627251072
21095086 128 18409728461174330807
21150785 3 18272934938407859352
21521721 280 18333732433317178930
21792961 116 17417812781696197597
21795232 338 18200031901585947403
220451 1 17560794429160940574
22224240 67 16877661270754566602
23035841 295 18272367564479932483
23516275 137 18058751112209914503
23536379 177 18341610395691635714
23569943 247 17170948137880087290
23576562 1 16557603392123927233
2747138 104 17167871850242269765
28498 318 11383839259769950480
29717793 49 17846501410059730366
3004659 81 16773793723610667672
335352 9 17346312705448927701
34797466 226 18412830175160373566
4073 2 18260270775942681082
4325135 7 18408322194223184245
5265222 85 17916862551169867214
5283156 175 17203612563099753974
5758199 1 18260548930893223810
59682541 35 17240768410259313265
6394761 36 12751242505774905801

> <PUBCHEM_SHAPE_MULTIPOLES>
488.79
25.53
1.45
0.98
4.16
0.13
-0.07
4.16
-0.35
-1.33
0.02
0.63
-0.01
-0.91

> <PUBCHEM_SHAPE_SELFOVERLAP>
1065.593

> <PUBCHEM_SHAPE_VOLUME>
268.3

> <PUBCHEM_COORDINATE_TYPE>
2
5
10

$$$$
