75536524
  -OEChem-12032416333D

 54 55  0     1  0  0  0  0  0999 V2000
    2.1937    0.1548    0.0811 O   0  0  0  0  0  0  0  0  0  0  0  0
    0.6223   -3.0757    0.0778 O   0  0  0  0  0  0  0  0  0  0  0  0
    4.4286    0.8910   -1.8400 O   0  0  0  0  0  0  0  0  0  0  0  0
   -8.4641   -0.3014    0.1749 O   0  0  0  0  0  0  0  0  0  0  0  0
   -8.0876    1.3877   -1.2987 O   0  0  0  0  0  0  0  0  0  0  0  0
   -1.3570   -0.6347    0.0905 N   0  0  0  0  0  0  0  0  0  0  0  0
    4.5757   -1.1952   -0.8267 N   0  0  0  0  0  0  0  0  0  0  0  0
    0.0346   -0.7435    0.4970 C   0  0  1  0  0  0  0  0  0  0  0  0
    0.8337   -1.7368   -0.3262 C   0  0  1  0  0  0  0  0  0  0  0  0
    2.2568   -1.2759   -0.0416 C   0  0  1  0  0  0  0  0  0  0  0  0
    0.8198    0.5376    0.2678 C   0  0  0  0  0  0  0  0  0  0  0  0
    3.2404   -1.6545   -1.1345 C   0  0  0  0  0  0  0  0  0  0  0  0
    6.6438    0.9895    0.5987 C   0  0  0  0  0  0  0  0  0  0  0  0
   -2.1469    0.0577    1.1017 C   0  0  0  0  0  0  0  0  0  0  0  0
    6.4942    0.2848   -0.7706 C   0  0  0  0  0  0  0  0  0  0  0  0
    5.0583    0.0451   -1.2080 C   0  0  0  0  0  0  0  0  0  0  0  0
    5.9637    0.1892    1.7215 C   0  0  0  0  0  0  0  0  0  0  0  0
    5.9626    2.3687    0.5025 C   0  0  0  0  0  0  0  0  0  0  0  0
    8.1251    1.2028    0.9528 C   0  0  0  0  0  0  0  0  0  0  0  0
   -3.5887    0.1944    0.6901 C   0  0  0  0  0  0  0  0  0  0  0  0
   -3.9553    1.1496   -0.2580 C   0  0  0  0  0  0  0  0  0  0  0  0
   -4.5576   -0.6338    1.2566 C   0  0  0  0  0  0  0  0  0  0  0  0
   -5.2908    1.2767   -0.6395 C   0  0  0  0  0  0  0  0  0  0  0  0
   -5.8932   -0.5066    0.8751 C   0  0  0  0  0  0  0  0  0  0  0  0
   -6.2599    0.4485   -0.0731 C   0  0  0  0  0  0  0  0  0  0  0  0
   -7.6524    0.5800   -0.4712 C   0  0  0  0  0  0  0  0  0  0  0  0
    0.0996   -1.0468    1.5516 H   0  0  0  0  0  0  0  0  0  0  0  0
    0.5946   -1.6475   -1.3932 H   0  0  0  0  0  0  0  0  0  0  0  0
    2.6121   -1.6706    0.9195 H   0  0  0  0  0  0  0  0  0  0  0  0
    0.5050    1.0625   -0.6415 H   0  0  0  0  0  0  0  0  0  0  0  0
    0.7491    1.2331    1.1095 H   0  0  0  0  0  0  0  0  0  0  0  0
    2.9411   -1.2112   -2.0911 H   0  0  0  0  0  0  0  0  0  0  0  0
    3.2885   -2.7414   -1.2547 H   0  0  0  0  0  0  0  0  0  0  0  0
   -1.7392   -1.5715   -0.0424 H   0  0  0  0  0  0  0  0  0  0  0  0
    5.1749   -1.8204   -0.2960 H   0  0  0  0  0  0  0  0  0  0  0  0
   -1.7509    1.0648    1.2842 H   0  0  0  0  0  0  0  0  0  0  0  0
   -2.0915   -0.4738    2.0607 H   0  0  0  0  0  0  0  0  0  0  0  0
    0.8351   -3.1468    1.0237 H   0  0  0  0  0  0  0  0  0  0  0  0
    7.0246   -0.6763   -0.7503 H   0  0  0  0  0  0  0  0  0  0  0  0
    6.9794    0.8760   -1.5582 H   0  0  0  0  0  0  0  0  0  0  0  0
    4.8797    0.1235    1.5838 H   0  0  0  0  0  0  0  0  0  0  0  0
    6.3631   -0.8297    1.7740 H   0  0  0  0  0  0  0  0  0  0  0  0
    6.1329    0.6608    2.6966 H   0  0  0  0  0  0  0  0  0  0  0  0
    6.1211    2.9463    1.4210 H   0  0  0  0  0  0  0  0  0  0  0  0
    6.3688    2.9564   -0.3286 H   0  0  0  0  0  0  0  0  0  0  0  0
    4.8795    2.2866    0.3633 H   0  0  0  0  0  0  0  0  0  0  0  0
    8.2376    1.7281    1.9078 H   0  0  0  0  0  0  0  0  0  0  0  0
    8.6329    1.7950    0.1834 H   0  0  0  0  0  0  0  0  0  0  0  0
    8.6485    0.2437    1.0347 H   0  0  0  0  0  0  0  0  0  0  0  0
   -3.2091    1.8008   -0.7059 H   0  0  0  0  0  0  0  0  0  0  0  0
   -4.2854   -1.3836    1.9947 H   0  0  0  0  0  0  0  0  0  0  0  0
   -5.5559    2.0270   -1.3798 H   0  0  0  0  0  0  0  0  0  0  0  0
   -6.6147   -1.1720    1.3408 H   0  0  0  0  0  0  0  0  0  0  0  0
   -9.4006   -0.2046   -0.1007 H   0  0  0  0  0  0  0  0  0  0  0  0
  1 10  1  0  0  0  0
  1 11  1  0  0  0  0
  2  9  1  0  0  0  0
  2 38  1  0  0  0  0
  3 16  2  0  0  0  0
  4 26  1  0  0  0  0
  4 54  1  0  0  0  0
  5 26  2  0  0  0  0
  6  8  1  0  0  0  0
  6 14  1  0  0  0  0
  6 34  1  0  0  0  0
  7 12  1  0  0  0  0
  7 16  1  0  0  0  0
  7 35  1  0  0  0  0
  8  9  1  0  0  0  0
  8 11  1  0  0  0  0
  8 27  1  0  0  0  0
  9 10  1  0  0  0  0
  9 28  1  0  0  0  0
 10 12  1  0  0  0  0
 10 29  1  0  0  0  0
 11 30  1  0  0  0  0
 11 31  1  0  0  0  0
 12 32  1  0  0  0  0
 12 33  1  0  0  0  0
 13 15  1  0  0  0  0
 13 17  1  0  0  0  0
 13 18  1  0  0  0  0
 13 19  1  0  0  0  0
 14 20  1  0  0  0  0
 14 36  1  0  0  0  0
 14 37  1  0  0  0  0
 15 16  1  0  0  0  0
 15 39  1  0  0  0  0
 15 40  1  0  0  0  0
 17 41  1  0  0  0  0
 17 42  1  0  0  0  0
 17 43  1  0  0  0  0
 18 44  1  0  0  0  0
 18 45  1  0  0  0  0
 18 46  1  0  0  0  0
 19 47  1  0  0  0  0
 19 48  1  0  0  0  0
 19 49  1  0  0  0  0
 20 21  2  0  0  0  0
 20 22  1  0  0  0  0
 21 23  1  0  0  0  0
 21 50  1  0  0  0  0
 22 24  2  0  0  0  0
 22 51  1  0  0  0  0
 23 25  2  0  0  0  0
 23 52  1  0  0  0  0
 24 25  1  0  0  0  0
 24 53  1  0  0  0  0
 25 26  1  0  0  0  0
M  END
> <PUBCHEM_COMPOUND_CID>
75536524

> <PUBCHEM_CONFORMER_RMSD>
1

> <PUBCHEM_CONFORMER_DIVERSEORDER>
1
39
89
73
100
71
18
10
15
98
31
80
68
2
60
67
83
24
6
93
54
26
79
84
66
95
17
33
91
50
96
35
42
19
82
30
43
69
8
97
36
57
92
78
102
21
20
56
41
27
40
16
47
63
81
25
87
76
4
52
94
61
34
99
86
45
58
51
70
55
32
75
48
9
12
5
7
49
77
74
11
44
23
37
38
14
29
13
65
53
46
59
72
90
85
62
101
3
28
64
88
22

> <PUBCHEM_MMFF94_PARTIAL_CHARGES>
30
1 -0.56
10 0.28
11 0.28
12 0.3
14 0.41
15 0.06
16 0.57
2 -0.68
20 -0.14
21 -0.15
22 -0.15
23 -0.15
24 -0.15
25 0.09
26 0.63
3 -0.57
34 0.36
35 0.37
38 0.4
4 -0.65
5 -0.57
50 0.15
51 0.15
52 0.15
53 0.15
54 0.5
6 -0.9
7 -0.73
8 0.27
9 0.28

> <PUBCHEM_EFFECTIVE_ROTOR_COUNT>
10

> <PUBCHEM_PHARMACOPHORE_FEATURES>
13
1 1 acceptor
1 2 acceptor
1 2 donor
1 3 acceptor
1 4 acceptor
1 5 acceptor
1 6 cation
1 6 donor
1 7 donor
3 4 5 26 anion
4 13 17 18 19 hydrophobe
5 1 8 9 10 11 rings
6 20 21 22 23 24 25 rings

> <PUBCHEM_HEAVY_ATOM_COUNT>
26

> <PUBCHEM_ATOM_DEF_STEREO_COUNT>
3

> <PUBCHEM_ATOM_UDEF_STEREO_COUNT>
0

> <PUBCHEM_BOND_DEF_STEREO_COUNT>
0

> <PUBCHEM_BOND_UDEF_STEREO_COUNT>
0

> <PUBCHEM_ISOTOPIC_ATOM_COUNT>
0

> <PUBCHEM_COMPONENT_COUNT>
1

> <PUBCHEM_CACTVS_TAUTO_COUNT>
2

> <PUBCHEM_CONFORMER_ID>
0480988C00000001

> <PUBCHEM_MMFF94_ENERGY>
62.1373

> <PUBCHEM_FEATURE_SELFOVERLAP>
66.03

> <PUBCHEM_SHAPE_FINGERPRINT>
10 15 18261110794320035666
10299344 5 13902191482580041645
10533779 1 17558537248925151736
10638233 991 16558751217247245472
10666366 153 8862951558761719715
11315181 36 17561084709970211427
11719270 70 18333732394810646850
12373685 5 17240477031642361595
12592606 108 8286193942882886457
13422730 43 17240204357358847947
13673619 4 11743836950252827139
13685833 64 8646771092919456546
13914758 101 13695862615364046567
14170010 4 18202846565157906408
14216079 64 11169905087699249608
14251764 18 16732701653806967801
14347424 109 13839989932623011222
14429380 56 18059850688525047536
14461889 52 18186810200572153954
14681490 219 16702305646283348160
14767858 380 16988846077141538498
15183329 4 17676776400353134173
15352257 5 11024106551305376253
1818759 1 14548729635120095533
20105231 36 8862944991704463480
20157964 124 18202849842618639430
20554085 129 18114175345928694026
21150785 3 16774078474950969301
21267235 1 8935002576861864586
21403212 168 18335133203300543210
21521721 280 18059862765661711418
21591340 7 14706928463150957105
22224240 67 18335138700220664059
23016692 55 10879993554026272946
23081809 10 16773242790453708995
23522609 53 15481854344605488403
23559900 14 18334577967214094753
246663 6 10159699101118326512
28498 318 8070032159805521979
312425 54 14635157884112703072
335352 9 18131080321170475654
34797466 226 16487260963062575740
4325135 7 16056881334220882320
439807 62 9511473225693305648
465052 167 8574713490724117250
57634706 306 18339917225178804568
9995097 26 17203604922453155159

> <PUBCHEM_SHAPE_MULTIPOLES>
495.76
26.05
1.87
1.3
15.07
0.65
-0.06
-12.65
-0.88
-1.95
-0.13
-0.87
-0.12
1.99

> <PUBCHEM_SHAPE_SELFOVERLAP>
1021.002

> <PUBCHEM_SHAPE_VOLUME>
285.9

> <PUBCHEM_COORDINATE_TYPE>
2
5
10

$$$$
