51137123
  -OEChem-12032416243D

 49 52  0     1  0  0  0  0  0999 V2000
    7.1193   -0.7891   -0.8751 F   0  0  0  0  0  0  0  0  0  0  0  0
    6.8789   -0.2228    1.2104 F   0  0  0  0  0  0  0  0  0  0  0  0
    6.2965   -2.2061    0.5542 F   0  0  0  0  0  0  0  0  0  0  0  0
   -3.0888    1.0933    0.1183 N   0  0  1  0  0  0  0  0  0  0  0  0
    1.4814    0.1708    1.2235 N   0  0  0  0  0  0  0  0  0  0  0  0
    1.0366    0.9709   -0.8018 N   0  0  0  0  0  0  0  0  0  0  0  0
   -4.9534   -0.4278   -0.3781 C   0  0  0  0  0  0  0  0  0  0  0  0
   -4.1066    0.7474   -0.8630 C   0  0  0  0  0  0  0  0  0  0  0  0
   -0.8671    0.9786    0.8602 C   0  0  2  0  0  0  0  0  0  0  0  0
   -1.9179    0.2170    0.0413 C   0  0  0  0  0  0  0  0  0  0  0  0
   -2.5624    2.4440   -0.0775 C   0  0  0  0  0  0  0  0  0  0  0  0
   -1.3118    2.4501    0.7922 C   0  0  0  0  0  0  0  0  0  0  0  0
   -5.9536   -0.8577   -1.4597 C   0  0  0  0  0  0  0  0  0  0  0  0
   -5.6790   -0.0711    0.9263 C   0  0  0  0  0  0  0  0  0  0  0  0
   -6.8488   -1.9975   -0.9787 C   0  0  0  0  0  0  0  0  0  0  0  0
   -6.5746   -1.2122    1.4033 C   0  0  0  0  0  0  0  0  0  0  0  0
   -7.5614   -1.6427    0.3226 C   0  0  0  0  0  0  0  0  0  0  0  0
    0.5461    0.7200    0.3914 C   0  0  0  0  0  0  0  0  0  0  0  0
    2.6535    0.0595    0.5205 C   0  0  0  0  0  0  0  0  0  0  0  0
    2.3500    0.5655   -0.7404 C   0  0  0  0  0  0  0  0  0  0  0  0
    3.9146   -0.4255    0.8686 C   0  0  0  0  0  0  0  0  0  0  0  0
    3.3521    0.5974   -1.7249 C   0  0  0  0  0  0  0  0  0  0  0  0
    4.8999   -0.3863   -0.1235 C   0  0  0  0  0  0  0  0  0  0  0  0
    4.6258    0.1158   -1.3978 C   0  0  0  0  0  0  0  0  0  0  0  0
    6.2707   -0.8916    0.1877 C   0  0  0  0  0  0  0  0  0  0  0  0
   -4.2993   -1.2885   -0.1830 H   0  0  0  0  0  0  0  0  0  0  0  0
   -4.7753    1.6061   -1.0147 H   0  0  0  0  0  0  0  0  0  0  0  0
   -3.6634    0.5315   -1.8440 H   0  0  0  0  0  0  0  0  0  0  0  0
   -0.9495    0.6601    1.9097 H   0  0  0  0  0  0  0  0  0  0  0  0
   -1.5842    0.0738   -0.9949 H   0  0  0  0  0  0  0  0  0  0  0  0
   -2.1096   -0.7691    0.4777 H   0  0  0  0  0  0  0  0  0  0  0  0
   -3.2727    3.2151    0.2370 H   0  0  0  0  0  0  0  0  0  0  0  0
   -2.2886    2.6235   -1.1252 H   0  0  0  0  0  0  0  0  0  0  0  0
   -0.5459    3.1178    0.3838 H   0  0  0  0  0  0  0  0  0  0  0  0
   -1.5569    2.8032    1.8017 H   0  0  0  0  0  0  0  0  0  0  0  0
   -5.4165   -1.1771   -2.3608 H   0  0  0  0  0  0  0  0  0  0  0  0
   -6.5808   -0.0048   -1.7491 H   0  0  0  0  0  0  0  0  0  0  0  0
   -6.2912    0.8284    0.7810 H   0  0  0  0  0  0  0  0  0  0  0  0
   -4.9613    0.1578    1.7225 H   0  0  0  0  0  0  0  0  0  0  0  0
   -7.5889   -2.2353   -1.7511 H   0  0  0  0  0  0  0  0  0  0  0  0
   -6.2424   -2.8993   -0.8289 H   0  0  0  0  0  0  0  0  0  0  0  0
   -5.9522   -2.0683    1.6916 H   0  0  0  0  0  0  0  0  0  0  0  0
   -7.1231   -0.9002    2.2993 H   0  0  0  0  0  0  0  0  0  0  0  0
   -8.1400   -2.5047    0.6733 H   0  0  0  0  0  0  0  0  0  0  0  0
   -8.2764   -0.8315    0.1375 H   0  0  0  0  0  0  0  0  0  0  0  0
    1.3384   -0.1058    2.1858 H   0  0  0  0  0  0  0  0  0  0  0  0
    4.1169   -0.8133    1.8612 H   0  0  0  0  0  0  0  0  0  0  0  0
    3.1487    0.9855   -2.7179 H   0  0  0  0  0  0  0  0  0  0  0  0
    5.3972    0.1430   -2.1636 H   0  0  0  0  0  0  0  0  0  0  0  0
  1 25  1  0  0  0  0
  2 25  1  0  0  0  0
  3 25  1  0  0  0  0
  4  8  1  0  0  0  0
  4 10  1  0  0  0  0
  4 11  1  0  0  0  0
  5 18  1  0  0  0  0
  5 19  1  0  0  0  0
  5 46  1  0  0  0  0
  6 18  2  0  0  0  0
  6 20  1  0  0  0  0
  7  8  1  0  0  0  0
  7 13  1  0  0  0  0
  7 14  1  0  0  0  0
  7 26  1  0  0  0  0
  8 27  1  0  0  0  0
  8 28  1  0  0  0  0
  9 10  1  0  0  0  0
  9 12  1  0  0  0  0
  9 18  1  0  0  0  0
  9 29  1  0  0  0  0
 10 30  1  0  0  0  0
 10 31  1  0  0  0  0
 11 12  1  0  0  0  0
 11 32  1  0  0  0  0
 11 33  1  0  0  0  0
 12 34  1  0  0  0  0
 12 35  1  0  0  0  0
 13 15  1  0  0  0  0
 13 36  1  0  0  0  0
 13 37  1  0  0  0  0
 14 16  1  0  0  0  0
 14 38  1  0  0  0  0
 14 39  1  0  0  0  0
 15 17  1  0  0  0  0
 15 40  1  0  0  0  0
 15 41  1  0  0  0  0
 16 17  1  0  0  0  0
 16 42  1  0  0  0  0
 16 43  1  0  0  0  0
 17 44  1  0  0  0  0
 17 45  1  0  0  0  0
 19 20  2  0  0  0  0
 19 21  1  0  0  0  0
 20 22  1  0  0  0  0
 21 23  2  0  0  0  0
 21 47  1  0  0  0  0
 22 24  2  0  0  0  0
 22 48  1  0  0  0  0
 23 24  1  0  0  0  0
 23 25  1  0  0  0  0
 24 49  1  0  0  0  0
M  END
> <PUBCHEM_COMPOUND_CID>
51137123

> <PUBCHEM_CONFORMER_RMSD>
0.8

> <PUBCHEM_CONFORMER_DIVERSEORDER>
1
26
5
36
17
12
3
37
32
9
14
33
4
16
39
42
40
20
29
31
34
15
19
25
18
13
11
7
38
43
35
41
10
23
2
22
21
28
6
27
24
30
8

> <PUBCHEM_MMFF94_PARTIAL_CHARGES>
22
1 -0.34
10 0.27
11 0.27
18 0.01
19 -0.15
2 -0.34
20 0.23
21 -0.15
22 -0.15
23 -0.14
24 -0.15
25 1.16
3 -0.34
4 -0.81
46 0.27
47 0.15
48 0.15
49 0.15
5 0.03
6 -0.57
8 0.27
9 0.18

> <PUBCHEM_EFFECTIVE_ROTOR_COUNT>
6.2

> <PUBCHEM_PHARMACOPHORE_FEATURES>
7
1 4 cation
1 5 donor
3 5 6 18 cation
5 4 9 10 11 12 rings
5 5 6 18 19 20 rings
6 19 20 21 22 23 24 rings
6 7 13 14 15 16 17 rings

> <PUBCHEM_HEAVY_ATOM_COUNT>
25

> <PUBCHEM_ATOM_DEF_STEREO_COUNT>
1

> <PUBCHEM_ATOM_UDEF_STEREO_COUNT>
0

> <PUBCHEM_BOND_DEF_STEREO_COUNT>
0

> <PUBCHEM_BOND_UDEF_STEREO_COUNT>
0

> <PUBCHEM_ISOTOPIC_ATOM_COUNT>
0

> <PUBCHEM_COMPONENT_COUNT>
1

> <PUBCHEM_CACTVS_TAUTO_COUNT>
2

> <PUBCHEM_CONFORMER_ID>
030C4A6300000001

> <PUBCHEM_MMFF94_ENERGY>
32.3927

> <PUBCHEM_FEATURE_SELFOVERLAP>
35.63

> <PUBCHEM_SHAPE_FINGERPRINT>
10 15 12103850077390639391
10554248 39 12829201153545390402
10669705 176 11097855185984893201
10670039 82 12901535828560890175
10674148 151 18187363230263912297
10693767 8 17386559138777949722
10763959 59 13190344573477250958
11089746 13 14851605475197552764
11297750 10 11453687930453139696
11386260 185 15213029245885191470
11963148 33 18413383237651797503
12035758 1 16486961891741944802
12166972 35 18040438801856766196
12236239 1 18186804647548405900
12760667 363 18411419523258906267
13668630 136 18040715848811527174
13673619 4 18130786776560592849
13685833 64 18060700602016721203
13690498 29 18187356641689069677
13782708 43 18130784538455012618
13862211 1 18341612642286631207
14211702 104 18339367353232507766
14251757 52 8934998170642312910
14251764 18 12391510884944203657
14341114 176 14189584026244169869
14347424 109 12823032875516597204
14528608 73 14851598912851267909
14556957 393 17313395495802464045
14765038 42 14333403458788267588
14849402 71 15338258195048272898
15003188 100 15502663744590307364
15142383 8 12967133787432449226
15183329 4 16153701016653062505
15238133 3 11527660925190340738
15348495 7 15410608238031607007
15716309 27 18131914879885378035
1577012 14 17968387757933907020
17093844 174 17846495912338327545
17780758 139 16917068872144607123
1813 80 18272660086529740765
18335252 98 17989205946144558502
18681886 176 18113897178224649568
190975 80 17346592014780718527
20281389 69 11167945757952087955
21054139 6 18187081732794149242
21150785 3 17749395875461596428
21267235 1 18413110562808763905
21521239 73 17530684307834963770
21521721 280 16128366104523546762
21623969 137 16271929311301281228
21637258 2 18412824707529913893
22122407 14 11671778321080619463
221357 26 16153703219839358828
22224240 67 14692567719556918629
22288116 15 14057009351743694819
23035841 295 18410859876077358611
23081809 10 18187657885398215948
23522609 53 18125473944939389585
23559900 14 17750239273794947889
23576562 1 14852473041628221190
23845131 108 15835683595074206497
24771293 8 12462698761306560226
2767999 5 8286208228033452303
2838139 119 12540695929472552935
29717793 49 17967535649333142948
3004659 81 17822288007056251355
312425 54 16272218492040443887
3178227 256 15697996337053183418
34797466 226 17846505850966769732
351380 3 18411981386543377535
3663271 9 13183018523411861357
393628 194 8286206076408883415
4340502 62 16988561286940744414
439807 62 18261112989565411783
4938544 92 17489317326661971985
504843 32 9511456707265409961
5104073 3 15768944437352794958
5283156 175 18260268529958965329
5470011 282 17821730550271368247
5758199 1 13686290292955186294
59682541 35 17203321239504596818
59682541 52 14851594467249030200
59755656 520 11386364868033583449
6009941 240 16773524278895135539
6328613 192 8862649214286008582
636775 8 18409456890139166262
7226269 152 9295292742428580711
7495541 125 17988921176184640320
999808 66 18412547635084890875

> <PUBCHEM_SHAPE_MULTIPOLES>
477.72
21.7
1.89
1.38
2.19
0.48
0.2
-16.17
-0.14
1.76
-0.14
0.04
-0.12
-0.73

> <PUBCHEM_SHAPE_SELFOVERLAP>
1028.205

> <PUBCHEM_SHAPE_VOLUME>
267.7

> <PUBCHEM_COORDINATE_TYPE>
2
5
10

$$$$
