25389372
  -OEChem-12032416353D

 64 67  0     1  0  0  0  0  0999 V2000
   -3.5204    0.5207   -1.7438 S   0  0  0  0  0  0  0  0  0  0  0  0
   -2.8119    0.2863   -2.9877 O   0  0  0  0  0  0  0  0  0  0  0  0
   -4.9649    0.6508   -1.7407 O   0  0  0  0  0  0  0  0  0  0  0  0
   -2.1763   -3.8841    1.9736 O   0  0  0  0  0  0  0  0  0  0  0  0
    0.5088    3.4674   -0.2247 N   0  0  2  0  0  0  0  0  0  0  0  0
    2.7950   -0.2572   -0.0338 N   0  0  0  0  0  0  0  0  0  0  0  0
   -2.8377    1.8660   -0.9529 N   0  0  0  0  0  0  0  0  0  0  0  0
    0.4902    2.0652    1.9662 C   0  0  2  0  0  0  0  0  0  0  0  0
    1.6257    1.6028    1.0249 C   0  0  2  0  0  0  0  0  0  0  0  0
   -0.8528    2.9184    0.0173 C   0  0  2  0  0  0  0  0  0  0  0  0
   -0.8577    1.9603    1.2292 C   0  0  0  0  0  0  0  0  0  0  0  0
    1.4991    2.3670   -0.3121 C   0  0  0  0  0  0  0  0  0  0  0  0
    0.7336    3.5576    2.2617 C   0  0  0  0  0  0  0  0  0  0  0  0
    0.8687    4.3221    0.9329 C   0  0  0  0  0  0  0  0  0  0  0  0
    1.6517    0.0914    0.8094 C   0  0  0  0  0  0  0  0  0  0  0  0
   -1.4468    2.2601   -1.2302 C   0  0  0  0  0  0  0  0  0  0  0  0
    2.6026   -1.5823   -0.6383 C   0  0  0  0  0  0  0  0  0  0  0  0
    4.0412   -0.2041    0.7421 C   0  0  0  0  0  0  0  0  0  0  0  0
    5.1074   -1.8743   -0.8290 C   0  0  0  0  0  0  0  0  0  0  0  0
    3.7656   -1.9397   -1.5663 C   0  0  0  0  0  0  0  0  0  0  0  0
    5.2533   -0.5139   -0.1389 C   0  0  0  0  0  0  0  0  0  0  0  0
    6.2704   -2.1334   -1.7826 C   0  0  0  0  0  0  0  0  0  0  0  0
   -3.1181   -0.7931   -0.6318 C   0  0  0  0  0  0  0  0  0  0  0  0
   -1.9203   -1.4918   -0.7827 C   0  0  0  0  0  0  0  0  0  0  0  0
   -3.9994   -1.1331    0.3945 C   0  0  0  0  0  0  0  0  0  0  0  0
   -1.6038   -2.5306    0.0928 C   0  0  0  0  0  0  0  0  0  0  0  0
   -3.6829   -2.1718    1.2699 C   0  0  0  0  0  0  0  0  0  0  0  0
   -2.4851   -2.8705    1.1192 C   0  0  0  0  0  0  0  0  0  0  0  0
   -0.9355   -4.5562    1.7618 C   0  0  0  0  0  0  0  0  0  0  0  0
    0.4756    1.4850    2.8949 H   0  0  0  0  0  0  0  0  0  0  0  0
    2.5564    1.9191    1.5114 H   0  0  0  0  0  0  0  0  0  0  0  0
   -1.5114    3.7665    0.2577 H   0  0  0  0  0  0  0  0  0  0  0  0
   -1.0437    0.9230    0.9378 H   0  0  0  0  0  0  0  0  0  0  0  0
   -1.6693    2.2435    1.9114 H   0  0  0  0  0  0  0  0  0  0  0  0
    2.4768    2.7900   -0.5788 H   0  0  0  0  0  0  0  0  0  0  0  0
    1.2463    1.7061   -1.1481 H   0  0  0  0  0  0  0  0  0  0  0  0
    1.6433    3.6863    2.8598 H   0  0  0  0  0  0  0  0  0  0  0  0
   -0.0998    3.9638    2.8474 H   0  0  0  0  0  0  0  0  0  0  0  0
    0.2325    5.2156    0.9502 H   0  0  0  0  0  0  0  0  0  0  0  0
    1.8938    4.6953    0.8138 H   0  0  0  0  0  0  0  0  0  0  0  0
    0.7246   -0.2079    0.3083 H   0  0  0  0  0  0  0  0  0  0  0  0
    1.6758   -0.4438    1.7673 H   0  0  0  0  0  0  0  0  0  0  0  0
   -0.8655    1.3819   -1.5252 H   0  0  0  0  0  0  0  0  0  0  0  0
   -1.4491    2.9667   -2.0676 H   0  0  0  0  0  0  0  0  0  0  0  0
    1.6827   -1.5901   -1.2358 H   0  0  0  0  0  0  0  0  0  0  0  0
    2.4953   -2.3535    0.1361 H   0  0  0  0  0  0  0  0  0  0  0  0
    4.0101   -0.9129    1.5803 H   0  0  0  0  0  0  0  0  0  0  0  0
    4.2131    0.7889    1.1671 H   0  0  0  0  0  0  0  0  0  0  0  0
    5.1186   -2.6572   -0.0589 H   0  0  0  0  0  0  0  0  0  0  0  0
    3.6104   -2.9467   -1.9715 H   0  0  0  0  0  0  0  0  0  0  0  0
    3.7730   -1.2507   -2.4213 H   0  0  0  0  0  0  0  0  0  0  0  0
    5.3687    0.2784   -0.8905 H   0  0  0  0  0  0  0  0  0  0  0  0
    6.1616   -0.5034    0.4755 H   0  0  0  0  0  0  0  0  0  0  0  0
   -3.4639    2.6081   -0.6171 H   0  0  0  0  0  0  0  0  0  0  0  0
    6.3108   -1.3804   -2.5770 H   0  0  0  0  0  0  0  0  0  0  0  0
    6.1736   -3.1173   -2.2537 H   0  0  0  0  0  0  0  0  0  0  0  0
    7.2245   -2.1105   -1.2457 H   0  0  0  0  0  0  0  0  0  0  0  0
   -1.2174   -1.2389   -1.5715 H   0  0  0  0  0  0  0  0  0  0  0  0
   -4.9342   -0.5979    0.5348 H   0  0  0  0  0  0  0  0  0  0  0  0
   -0.6560   -3.0291   -0.0797 H   0  0  0  0  0  0  0  0  0  0  0  0
   -4.3724   -2.4312    2.0686 H   0  0  0  0  0  0  0  0  0  0  0  0
   -0.8522   -5.3312    2.5307 H   0  0  0  0  0  0  0  0  0  0  0  0
   -0.0838   -3.8802    1.8954 H   0  0  0  0  0  0  0  0  0  0  0  0
   -0.9135   -5.0642    0.7918 H   0  0  0  0  0  0  0  0  0  0  0  0
  1  2  2  0  0  0  0
  1  3  2  0  0  0  0
  1  7  1  0  0  0  0
  1 23  1  0  0  0  0
  4 28  1  0  0  0  0
  4 29  1  0  0  0  0
  5 10  1  0  0  0  0
  5 12  1  0  0  0  0
  5 14  1  0  0  0  0
  6 15  1  0  0  0  0
  6 17  1  0  0  0  0
  6 18  1  0  0  0  0
  7 16  1  0  0  0  0
  7 54  1  0  0  0  0
  8  9  1  0  0  0  0
  8 11  1  0  0  0  0
  8 13  1  0  0  0  0
  8 30  1  0  0  0  0
  9 12  1  0  0  0  0
  9 15  1  0  0  0  0
  9 31  1  0  0  0  0
 10 11  1  0  0  0  0
 10 16  1  0  0  0  0
 10 32  1  0  0  0  0
 11 33  1  0  0  0  0
 11 34  1  0  0  0  0
 12 35  1  0  0  0  0
 12 36  1  0  0  0  0
 13 14  1  0  0  0  0
 13 37  1  0  0  0  0
 13 38  1  0  0  0  0
 14 39  1  0  0  0  0
 14 40  1  0  0  0  0
 15 41  1  0  0  0  0
 15 42  1  0  0  0  0
 16 43  1  0  0  0  0
 16 44  1  0  0  0  0
 17 20  1  0  0  0  0
 17 45  1  0  0  0  0
 17 46  1  0  0  0  0
 18 21  1  0  0  0  0
 18 47  1  0  0  0  0
 18 48  1  0  0  0  0
 19 20  1  0  0  0  0
 19 21  1  0  0  0  0
 19 22  1  0  0  0  0
 19 49  1  0  0  0  0
 20 50  1  0  0  0  0
 20 51  1  0  0  0  0
 21 52  1  0  0  0  0
 21 53  1  0  0  0  0
 22 55  1  0  0  0  0
 22 56  1  0  0  0  0
 22 57  1  0  0  0  0
 23 24  2  0  0  0  0
 23 25  1  0  0  0  0
 24 26  1  0  0  0  0
 24 58  1  0  0  0  0
 25 27  2  0  0  0  0
 25 59  1  0  0  0  0
 26 28  2  0  0  0  0
 26 60  1  0  0  0  0
 27 28  1  0  0  0  0
 27 61  1  0  0  0  0
 29 62  1  0  0  0  0
 29 63  1  0  0  0  0
 29 64  1  0  0  0  0
M  END
> <PUBCHEM_COMPOUND_CID>
25389372

> <PUBCHEM_CONFORMER_RMSD>
1

> <PUBCHEM_CONFORMER_DIVERSEORDER>
8
138
147
217
151
143
65
213
222
230
31
235
97
226
121
208
98
79
221
216
200
164
193
106
149
214
156
150
68
186
140
220
201
228
189
58
49
207
211
195
166
135
225
131
198
141
70
104
134
170
96
94
129
30
22
128
144
231
192
125
61
224
16
146
160
119
182
165
154
173
175
38
132
120
199
209
63
62
46
158
107
59
229
157
167
204
69
174
190
148
210
32
130
43
27
81
11
5
118
196
100
99
162
240
54
212
153
137
6
142
42
86
178
180
20
171
39
93
47
234
238
215
28
57
95
117
91
188
89
168
29
152
139
74
205
78
109
34
218
176
56
75
44
194
41
122
241
159
239
184
108
155
73
3
88
71
102
133
87
13
25
236
179
7
187
219
33
17
181
172
183
77
169
14
18
12
223
136
37
232
177
116
105
50
23
203
72
103
26
114
10
161
67
82
92
60
206
48
127
36
101
163
185
83
113
191
84
145
85
35
115
21
197
51
111
24
112
237
202
123
64
90
9
19
233
80
124
52
126
55
45
76
15
4
1
227
66
2
53
110
40

> <PUBCHEM_MMFF94_PARTIAL_CHARGES>
26
1 1.45
10 0.27
12 0.27
14 0.27
15 0.27
16 0.36
17 0.27
18 0.27
2 -0.65
23 -0.01
24 -0.15
25 -0.15
26 -0.15
27 -0.15
28 0.08
29 0.28
3 -0.65
4 -0.36
5 -0.81
54 0.42
58 0.15
59 0.15
6 -0.81
60 0.15
61 0.15
7 -0.91

> <PUBCHEM_EFFECTIVE_ROTOR_COUNT>
9.4

> <PUBCHEM_PHARMACOPHORE_FEATURES>
9
1 2 acceptor
1 3 acceptor
1 4 acceptor
1 5 cation
1 6 cation
1 7 donor
6 23 24 25 26 27 28 rings
6 6 17 18 19 20 21 rings
8 5 8 9 10 11 12 13 14 rings

> <PUBCHEM_HEAVY_ATOM_COUNT>
29

> <PUBCHEM_ATOM_DEF_STEREO_COUNT>
3

> <PUBCHEM_ATOM_UDEF_STEREO_COUNT>
0

> <PUBCHEM_BOND_DEF_STEREO_COUNT>
0

> <PUBCHEM_BOND_UDEF_STEREO_COUNT>
0

> <PUBCHEM_ISOTOPIC_ATOM_COUNT>
0

> <PUBCHEM_COMPONENT_COUNT>
1

> <PUBCHEM_CACTVS_TAUTO_COUNT>
1

> <PUBCHEM_CONFORMER_ID>
0183693C00000008

> <PUBCHEM_MMFF94_ENERGY>
59.6966

> <PUBCHEM_FEATURE_SELFOVERLAP>
45.689

> <PUBCHEM_SHAPE_FINGERPRINT>
10006869 2 17548984356567710977
107951 10 17907299853851302397
11488393 25 18193556894663230600
12156800 1 17265030118074038101
12712778 12 18116125841334634338
12788726 201 18196369226258039762
13402501 40 18412258424333782919
13941206 138 17899984828619164962
14114206 34 18194668272815763972
14114211 68 17826794737984053167
14251740 79 18053385401250243998
14251757 5 18260278442627979150
14363568 33 18053958521807404948
14725015 67 18263338396694260799
14931854 50 18193546779587506839
14950920 106 13829261958868401942
150020 26 18051979413350749666
15351339 4 18118394043348750187
15361156 5 17916597419128962044
15463212 79 17690285907051450120
17357779 13 18272928306703989170
17627616 140 17685495343010017194
17974551 9 18057625341688771649
19315092 285 15838141334190033181
19611394 137 18340475752170265888
1979834 28 16821944910866750539
20775438 99 17336419441071376863
23428019 142 18191311464354727102
23536364 44 18337115562193256338
3027735 51 18125722279546991402
3493558 16 17244161623992338046
437815 12 18342181076712959279
4403749 210 16972490008461230897
469060 322 17460062645675611835
57307002 85 18057619685254350646
6287921 2 17398685974015360443
70634741 139 18261688008614598046

> <PUBCHEM_SHAPE_MULTIPOLES>
568.1
9.62
5.8
2.22
10.62
0.96
-0.31
-8.67
-5.39
-0.89
3.55
-1.33
-0.2
3.77

> <PUBCHEM_SHAPE_SELFOVERLAP>
1173.846

> <PUBCHEM_SHAPE_VOLUME>
328.6

> <PUBCHEM_COORDINATE_TYPE>
2
5
10

$$$$
