45361052
  -OEChem-12032416253D

 66 69  0     1  0  0  0  0  0999 V2000
    7.4090    2.5975    0.2217 S   0  0  0  0  0  0  0  0  0  0  0  0
    0.4501    0.0156   -1.4171 O   0  0  0  0  0  0  0  0  0  0  0  0
   -5.9455   -1.0711   -0.0800 O   0  0  0  0  0  0  0  0  0  0  0  0
    8.7033    1.9564    0.4096 O   0  0  0  0  0  0  0  0  0  0  0  0
    7.2566    3.6355   -0.7880 O   0  0  0  0  0  0  0  0  0  0  0  0
    2.1049   -1.5265    0.0582 N   0  0  1  0  0  0  0  0  0  0  0  0
   -1.3095   -2.5310    0.9084 N   0  0  1  0  0  0  0  0  0  0  0  0
   -1.0646   -1.6497   -1.8278 N   0  0  0  0  0  0  0  0  0  0  0  0
   -4.8140    0.9821    0.0500 N   0  0  0  0  0  0  0  0  0  0  0  0
    0.1463   -2.7639    0.7820 C   0  0  1  0  0  0  0  0  0  0  0  0
    0.8859   -2.1781   -0.4566 C   0  0  1  0  0  0  0  0  0  0  0  0
    0.9739   -2.1938    1.9489 C   0  0  0  0  0  0  0  0  0  0  0  0
    2.3714   -2.0952    1.3746 C   0  0  0  0  0  0  0  0  0  0  0  0
   -2.1288   -3.1513   -0.1701 C   0  0  2  0  0  0  0  0  0  0  0  0
    0.0906   -1.1500   -1.2571 C   0  0  0  0  0  0  0  0  0  0  0  0
   -1.5566   -2.9926   -1.5924 C   0  0  0  0  0  0  0  0  0  0  0  0
    3.2488   -1.6534   -0.8358 C   0  0  0  0  0  0  0  0  0  0  0  0
   -3.5535   -2.5583   -0.1743 C   0  0  0  0  0  0  0  0  0  0  0  0
   -1.7960   -2.9618    2.2301 C   0  0  0  0  0  0  0  0  0  0  0  0
   -3.5347   -1.0424   -0.0720 C   0  0  0  0  0  0  0  0  0  0  0  0
    4.2861   -0.5943   -0.5728 C   0  0  0  0  0  0  0  0  0  0  0  0
    4.0777    0.7115   -1.0169 C   0  0  0  0  0  0  0  0  0  0  0  0
    5.4555   -0.9188    0.1148 C   0  0  0  0  0  0  0  0  0  0  0  0
   -4.9176   -0.4030   -0.0444 C   0  0  0  0  0  0  0  0  0  0  0  0
    5.0386    1.6927   -0.7735 C   0  0  0  0  0  0  0  0  0  0  0  0
    6.4166    0.0624    0.3583 C   0  0  0  0  0  0  0  0  0  0  0  0
    6.2081    1.3682   -0.0859 C   0  0  0  0  0  0  0  0  0  0  0  0
   -5.8686    1.9244    0.1017 C   0  0  0  0  0  0  0  0  0  0  0  0
    6.9415    3.2897    1.7919 C   0  0  0  0  0  0  0  0  0  0  0  0
   -5.5820    3.2862    0.1966 C   0  0  0  0  0  0  0  0  0  0  0  0
   -7.1940    1.4922    0.0579 C   0  0  0  0  0  0  0  0  0  0  0  0
   -6.6208    4.2159    0.2476 C   0  0  0  0  0  0  0  0  0  0  0  0
   -8.2329    2.4217    0.1087 C   0  0  0  0  0  0  0  0  0  0  0  0
   -7.9461    3.7835    0.2036 C   0  0  0  0  0  0  0  0  0  0  0  0
    0.3214   -3.8510    0.7778 H   0  0  0  0  0  0  0  0  0  0  0  0
    1.1579   -3.0045   -1.1267 H   0  0  0  0  0  0  0  0  0  0  0  0
    0.9528   -2.8400    2.8326 H   0  0  0  0  0  0  0  0  0  0  0  0
    0.6145   -1.1970    2.2376 H   0  0  0  0  0  0  0  0  0  0  0  0
    2.8259   -3.0923    1.3160 H   0  0  0  0  0  0  0  0  0  0  0  0
    3.0058   -1.4494    1.9892 H   0  0  0  0  0  0  0  0  0  0  0  0
   -2.2169   -4.2321    0.0083 H   0  0  0  0  0  0  0  0  0  0  0  0
   -2.3124   -3.2003   -2.3580 H   0  0  0  0  0  0  0  0  0  0  0  0
   -0.7466   -3.7088   -1.7631 H   0  0  0  0  0  0  0  0  0  0  0  0
    2.9303   -1.5244   -1.8800 H   0  0  0  0  0  0  0  0  0  0  0  0
    3.6913   -2.6580   -0.7975 H   0  0  0  0  0  0  0  0  0  0  0  0
   -4.1358   -2.9720    0.6583 H   0  0  0  0  0  0  0  0  0  0  0  0
   -4.0995   -2.8666   -1.0751 H   0  0  0  0  0  0  0  0  0  0  0  0
   -1.6051   -1.0347   -2.4282 H   0  0  0  0  0  0  0  0  0  0  0  0
   -1.6188   -4.0302    2.3973 H   0  0  0  0  0  0  0  0  0  0  0  0
   -1.3175   -2.3983    3.0372 H   0  0  0  0  0  0  0  0  0  0  0  0
   -2.8646   -2.7702    2.3622 H   0  0  0  0  0  0  0  0  0  0  0  0
   -3.0259   -0.7068    0.8386 H   0  0  0  0  0  0  0  0  0  0  0  0
   -3.0285   -0.5892   -0.9256 H   0  0  0  0  0  0  0  0  0  0  0  0
    3.1714    0.9777   -1.5539 H   0  0  0  0  0  0  0  0  0  0  0  0
    5.6286   -1.9316    0.4688 H   0  0  0  0  0  0  0  0  0  0  0  0
    4.8517    2.7044   -1.1222 H   0  0  0  0  0  0  0  0  0  0  0  0
    7.3167   -0.2104    0.9019 H   0  0  0  0  0  0  0  0  0  0  0  0
   -3.8785    1.3816    0.0836 H   0  0  0  0  0  0  0  0  0  0  0  0
    6.9707    2.5042    2.5495 H   0  0  0  0  0  0  0  0  0  0  0  0
    5.9385    3.7125    1.7090 H   0  0  0  0  0  0  0  0  0  0  0  0
    7.6571    4.0757    2.0424 H   0  0  0  0  0  0  0  0  0  0  0  0
   -4.5536    3.6366    0.2317 H   0  0  0  0  0  0  0  0  0  0  0  0
   -7.4952    0.4569   -0.0168 H   0  0  0  0  0  0  0  0  0  0  0  0
   -6.3977    5.2762    0.3215 H   0  0  0  0  0  0  0  0  0  0  0  0
   -9.2655    2.0865    0.0742 H   0  0  0  0  0  0  0  0  0  0  0  0
   -8.7550    4.5072    0.2432 H   0  0  0  0  0  0  0  0  0  0  0  0
  1  4  2  0  0  0  0
  1  5  2  0  0  0  0
  1 27  1  0  0  0  0
  1 29  1  0  0  0  0
  2 15  2  0  0  0  0
  3 24  2  0  0  0  0
  6 11  1  0  0  0  0
  6 13  1  0  0  0  0
  6 17  1  0  0  0  0
  7 10  1  0  0  0  0
  7 14  1  0  0  0  0
  7 19  1  0  0  0  0
  8 15  1  0  0  0  0
  8 16  1  0  0  0  0
  8 48  1  0  0  0  0
  9 24  1  0  0  0  0
  9 28  1  0  0  0  0
  9 58  1  0  0  0  0
 10 11  1  0  0  0  0
 10 12  1  0  0  0  0
 10 35  1  0  0  0  0
 11 15  1  0  0  0  0
 11 36  1  0  0  0  0
 12 13  1  0  0  0  0
 12 37  1  0  0  0  0
 12 38  1  0  0  0  0
 13 39  1  0  0  0  0
 13 40  1  0  0  0  0
 14 16  1  0  0  0  0
 14 18  1  0  0  0  0
 14 41  1  0  0  0  0
 16 42  1  0  0  0  0
 16 43  1  0  0  0  0
 17 21  1  0  0  0  0
 17 44  1  0  0  0  0
 17 45  1  0  0  0  0
 18 20  1  0  0  0  0
 18 46  1  0  0  0  0
 18 47  1  0  0  0  0
 19 49  1  0  0  0  0
 19 50  1  0  0  0  0
 19 51  1  0  0  0  0
 20 24  1  0  0  0  0
 20 52  1  0  0  0  0
 20 53  1  0  0  0  0
 21 22  2  0  0  0  0
 21 23  1  0  0  0  0
 22 25  1  0  0  0  0
 22 54  1  0  0  0  0
 23 26  2  0  0  0  0
 23 55  1  0  0  0  0
 25 27  2  0  0  0  0
 25 56  1  0  0  0  0
 26 27  1  0  0  0  0
 26 57  1  0  0  0  0
 28 30  2  0  0  0  0
 28 31  1  0  0  0  0
 29 59  1  0  0  0  0
 29 60  1  0  0  0  0
 29 61  1  0  0  0  0
 30 32  1  0  0  0  0
 30 62  1  0  0  0  0
 31 33  2  0  0  0  0
 31 63  1  0  0  0  0
 32 34  2  0  0  0  0
 32 64  1  0  0  0  0
 33 34  1  0  0  0  0
 33 65  1  0  0  0  0
 34 66  1  0  0  0  0
M  END
> <PUBCHEM_COMPOUND_CID>
45361052

> <PUBCHEM_CONFORMER_RMSD>
1

> <PUBCHEM_CONFORMER_DIVERSEORDER>
1
159
49
98
115
102
38
193
124
12
48
164
63
78
144
36
184
209
85
43
86
112
215
126
35
120
220
213
76
183
133
14
219
65
17
190
91
200
181
59
206
107
123
46
194
2
199
30
92
45
79
96
140
39
111
177
214
108
103
160
176
192
97
87
34
55
62
26
222
100
54
139
13
64
173
127
122
145
11
168
151
203
33
6
82
182
217
51
21
70
174
31
66
50
101
141
202
143
116
218
16
210
171
73
186
172
211
93
113
197
179
157
189
89
99
37
41
67
146
163
18
121
155
57
195
204
187
178
68
208
60
165
221
95
147
212
201
47
125
162
8
52
136
104
117
175
15
198
28
94
83
80
75
152
185
109
130
207
71
105
205
216
32
137
166
114
20
61
132
196
149
110
22
188
74
150
90
170
27
29
148
142
118
77
156
4
223
180
58
40
161
72
53
7
169
84
158
129
3
167
153
88
135
19
106
44
23
10
119
25
154
9
191
56
131
134
5
42
69
138
24
128
81

> <PUBCHEM_MMFF94_PARTIAL_CHARGES>
43
1 1.2
10 0.27
11 0.33
13 0.27
14 0.27
15 0.57
16 0.3
17 0.41
19 0.27
2 -0.57
20 0.06
21 -0.14
22 -0.15
23 -0.15
24 0.57
25 -0.15
26 -0.15
27 -0.01
28 0.12
29 0.11
3 -0.57
30 -0.15
31 -0.15
32 -0.15
33 -0.15
34 -0.15
4 -0.65
48 0.37
5 -0.65
54 0.15
55 0.15
56 0.15
57 0.15
58 0.37
6 -0.81
62 0.15
63 0.15
64 0.15
65 0.15
66 0.15
7 -0.81
8 -0.73
9 -0.55

> <PUBCHEM_EFFECTIVE_ROTOR_COUNT>
9.4

> <PUBCHEM_PHARMACOPHORE_FEATURES>
12
1 2 acceptor
1 3 acceptor
1 4 acceptor
1 5 acceptor
1 6 cation
1 7 cation
1 8 donor
1 9 donor
5 6 10 11 12 13 rings
6 21 22 23 25 26 27 rings
6 28 30 31 32 33 34 rings
7 7 8 10 11 14 15 16 rings

> <PUBCHEM_HEAVY_ATOM_COUNT>
34

> <PUBCHEM_ATOM_DEF_STEREO_COUNT>
3

> <PUBCHEM_ATOM_UDEF_STEREO_COUNT>
0

> <PUBCHEM_BOND_DEF_STEREO_COUNT>
0

> <PUBCHEM_BOND_UDEF_STEREO_COUNT>
0

> <PUBCHEM_ISOTOPIC_ATOM_COUNT>
0

> <PUBCHEM_COMPONENT_COUNT>
1

> <PUBCHEM_CACTVS_TAUTO_COUNT>
6

> <PUBCHEM_CONFORMER_ID>
02B4279C00000001

> <PUBCHEM_MMFF94_ENERGY>
91.6498

> <PUBCHEM_FEATURE_SELFOVERLAP>
60.951

> <PUBCHEM_SHAPE_FINGERPRINT>
10280341 67 18271794757619363184
10533779 1 18408876322420223061
10693767 8 10879696681243724471
10939801 23 18336548227167994117
11135609 201 18334571309924809759
11409948 8 18336279986092896481
11621639 254 18129372856679370999
12895837 130 18341332296422355855
13383668 262 7997399612018846234
13726171 33 18342184319908939465
13782708 43 9007062353012269542
14394314 77 18334012795876897301
14565420 104 18187928326730225546
15289351 153 18336818767447678018
15347591 1 18412826876014677703
15510800 12 10881395431193633913
15803439 3 16559029385473951623
15840311 113 18262803964954400863
15950262 2 18413110554219043847
16067689 134 18188505660835901956
16126227 98 18410857647137005473
16994733 274 18411414055501723178
19053607 189 18271795775441443155
19304144 158 18130227193819625854
19438510 23 18261112967494619827
20691028 202 18408603668920306853
21223535 225 18129655434977639252
21424621 283 18335983142483828226
21774942 28 18410572912306354570
21781055 127 17967542273011698022
23191077 185 18341038675447619135
23522609 53 17242468333383803452
23569914 2 16913649420351196496
2838139 119 18343298180458390063
3918712 181 18194399992902265245
406291 66 9151168749258642517
4112364 45 18115302259769448083
4366758 26 18196095452279673009
44802255 64 17703513297609983415
5104073 3 17603859061949172338
563151 74 17241053098330491587
5718773 13 8790882982149225231
5776283 40 18343862234529994209
6201320 82 18270978907006606168
6204607 403 17914342274259616081
636775 72 18267302213253460896
6698420 124 18113900477018418458
6712543 237 15068630362065163361
7970288 3 9510872866442496877

> <PUBCHEM_SHAPE_MULTIPOLES>
660.15
25.32
5.69
1.44
1.23
3.21
-0.36
41.59
-2.44
4.26
-1.14
-0.97
-0.96
0.04

> <PUBCHEM_SHAPE_SELFOVERLAP>
1386.693

> <PUBCHEM_SHAPE_VOLUME>
372.1

> <PUBCHEM_COORDINATE_TYPE>
2
5
10

$$$$
