56775723
  -OEChem-12032416323D

 44 46  0     0  0  0  0  0  0999 V2000
    2.0623    0.3572   -2.3382 O   0  0  0  0  0  0  0  0  0  0  0  0
   -1.1798   -1.7731    0.3269 O   0  0  0  0  0  0  0  0  0  0  0  0
   -5.5241    2.3581    0.0210 O   0  0  0  0  0  0  0  0  0  0  0  0
    4.1480    0.2684   -0.1306 N   0  0  0  0  0  0  0  0  0  0  0  0
    0.1926   -1.7808    0.5446 N   0  0  0  0  0  0  0  0  0  0  0  0
    2.6914    0.1406   -0.3100 C   0  0  0  0  0  0  0  0  0  0  0  0
    2.2083    1.2634   -1.2211 C   0  0  0  0  0  0  0  0  0  0  0  0
    2.4218   -0.7678   -1.5043 C   0  0  0  0  0  0  0  0  0  0  0  0
    1.9653   -0.1161    0.9750 C   0  0  0  0  0  0  0  0  0  0  0  0
    4.4159    1.1578    0.9987 C   0  0  0  0  0  0  0  0  0  0  0  0
    4.7195   -1.0558    0.1101 C   0  0  0  0  0  0  0  0  0  0  0  0
    0.5233   -0.4972    0.7116 C   0  0  0  0  0  0  0  0  0  0  0  0
    3.8295    2.5390    0.7609 C   0  0  0  0  0  0  0  0  0  0  0  0
    6.2246   -0.9775    0.3021 C   0  0  0  0  0  0  0  0  0  0  0  0
   -0.5878    0.3577    0.6109 C   0  0  0  0  0  0  0  0  0  0  0  0
   -1.6329   -0.4941    0.3687 C   0  0  0  0  0  0  0  0  0  0  0  0
   -3.0420   -0.3260    0.1617 C   0  0  0  0  0  0  0  0  0  0  0  0
   -3.6045    0.9502    0.1909 C   0  0  0  0  0  0  0  0  0  0  0  0
   -3.8506   -1.4395   -0.0669 C   0  0  0  0  0  0  0  0  0  0  0  0
   -4.9754    1.1129   -0.0086 C   0  0  0  0  0  0  0  0  0  0  0  0
   -5.2215   -1.2768   -0.2662 C   0  0  0  0  0  0  0  0  0  0  0  0
   -5.7840   -0.0005   -0.2373 C   0  0  0  0  0  0  0  0  0  0  0  0
    1.2496    1.7301   -0.9790 H   0  0  0  0  0  0  0  0  0  0  0  0
    2.8988    2.0536   -1.5233 H   0  0  0  0  0  0  0  0  0  0  0  0
    3.2344   -1.2983   -2.0058 H   0  0  0  0  0  0  0  0  0  0  0  0
    1.5910   -1.4741   -1.4613 H   0  0  0  0  0  0  0  0  0  0  0  0
    1.9332    0.7545    1.6391 H   0  0  0  0  0  0  0  0  0  0  0  0
    2.4020   -0.9330    1.5608 H   0  0  0  0  0  0  0  0  0  0  0  0
    4.1067    0.7610    1.9729 H   0  0  0  0  0  0  0  0  0  0  0  0
    5.4960    1.3274    1.0798 H   0  0  0  0  0  0  0  0  0  0  0  0
    4.2984   -1.5542    0.9901 H   0  0  0  0  0  0  0  0  0  0  0  0
    4.5820   -1.7415   -0.7278 H   0  0  0  0  0  0  0  0  0  0  0  0
    4.1831    3.2008    1.5624 H   0  0  0  0  0  0  0  0  0  0  0  0
    2.7410    2.5996    0.8071 H   0  0  0  0  0  0  0  0  0  0  0  0
    4.1997    2.9865   -0.1672 H   0  0  0  0  0  0  0  0  0  0  0  0
    6.6532   -1.9857    0.2653 H   0  0  0  0  0  0  0  0  0  0  0  0
    6.5028   -0.5582    1.2740 H   0  0  0  0  0  0  0  0  0  0  0  0
    6.7042   -0.3918   -0.4897 H   0  0  0  0  0  0  0  0  0  0  0  0
   -0.6152    1.4333    0.7064 H   0  0  0  0  0  0  0  0  0  0  0  0
   -2.9949    1.8332    0.3677 H   0  0  0  0  0  0  0  0  0  0  0  0
   -3.4502   -2.4497   -0.0968 H   0  0  0  0  0  0  0  0  0  0  0  0
   -5.8515   -2.1435   -0.4441 H   0  0  0  0  0  0  0  0  0  0  0  0
   -6.8533    0.1126   -0.3939 H   0  0  0  0  0  0  0  0  0  0  0  0
   -6.4813    2.2844   -0.1354 H   0  0  0  0  0  0  0  0  0  0  0  0
  1  7  1  0  0  0  0
  1  8  1  0  0  0  0
  2  5  1  0  0  0  0
  2 16  1  0  0  0  0
  3 20  1  0  0  0  0
  3 44  1  0  0  0  0
  4  6  1  0  0  0  0
  4 10  1  0  0  0  0
  4 11  1  0  0  0  0
  5 12  2  0  0  0  0
  6  7  1  0  0  0  0
  6  8  1  0  0  0  0
  6  9  1  0  0  0  0
  7 23  1  0  0  0  0
  7 24  1  0  0  0  0
  8 25  1  0  0  0  0
  8 26  1  0  0  0  0
  9 12  1  0  0  0  0
  9 27  1  0  0  0  0
  9 28  1  0  0  0  0
 10 13  1  0  0  0  0
 10 29  1  0  0  0  0
 10 30  1  0  0  0  0
 11 14  1  0  0  0  0
 11 31  1  0  0  0  0
 11 32  1  0  0  0  0
 12 15  1  0  0  0  0
 13 33  1  0  0  0  0
 13 34  1  0  0  0  0
 13 35  1  0  0  0  0
 14 36  1  0  0  0  0
 14 37  1  0  0  0  0
 14 38  1  0  0  0  0
 15 16  2  0  0  0  0
 15 39  1  0  0  0  0
 16 17  1  0  0  0  0
 17 18  2  0  0  0  0
 17 19  1  0  0  0  0
 18 20  1  0  0  0  0
 18 40  1  0  0  0  0
 19 21  2  0  0  0  0
 19 41  1  0  0  0  0
 20 22  2  0  0  0  0
 21 22  1  0  0  0  0
 21 42  1  0  0  0  0
 22 43  1  0  0  0  0
M  END
> <PUBCHEM_COMPOUND_CID>
56775723

> <PUBCHEM_CONFORMER_RMSD>
0.8

> <PUBCHEM_CONFORMER_DIVERSEORDER>
1
8
18
20
24
10
15
17
3
23
12
21
19
14
11
4
5
16
13
2
7
22
9
6

> <PUBCHEM_MMFF94_PARTIAL_CHARGES>
26
1 -0.52
10 0.27
11 0.27
12 0.11
15 -0.15
16 0.09
17 0.05
18 -0.15
19 -0.15
2 -0.02
20 0.08
21 -0.15
22 -0.15
3 -0.53
39 0.15
4 -0.75
40 0.15
41 0.15
42 0.15
43 0.15
44 0.45
5 -0.41
6 0.21
7 0.26
8 0.26
9 0.18

> <PUBCHEM_EFFECTIVE_ROTOR_COUNT>
6.8

> <PUBCHEM_PHARMACOPHORE_FEATURES>
7
1 1 acceptor
1 3 donor
1 4 cation
1 5 acceptor
4 1 6 7 8 rings
5 2 5 12 15 16 rings
6 17 18 19 20 21 22 rings

> <PUBCHEM_HEAVY_ATOM_COUNT>
22

> <PUBCHEM_ATOM_DEF_STEREO_COUNT>
0

> <PUBCHEM_ATOM_UDEF_STEREO_COUNT>
0

> <PUBCHEM_BOND_DEF_STEREO_COUNT>
0

> <PUBCHEM_BOND_UDEF_STEREO_COUNT>
0

> <PUBCHEM_ISOTOPIC_ATOM_COUNT>
0

> <PUBCHEM_COMPONENT_COUNT>
1

> <PUBCHEM_CACTVS_TAUTO_COUNT>
3

> <PUBCHEM_CONFORMER_ID>
0362542B00000001

> <PUBCHEM_MMFF94_ENERGY>
61.5097

> <PUBCHEM_FEATURE_SELFOVERLAP>
35.522

> <PUBCHEM_SHAPE_FINGERPRINT>
10354089 29 16877662352980797489
10447042 23 15267343977080974830
10498660 4 18412545380137311833
11089746 13 18408317778759381640
11287383 113 17989205979612798875
12166972 35 18260551142638240508
12236239 1 18113056034290588587
12516196 113 10159693599386760491
12633257 1 15647051598828564209
12916748 109 18409171047639099331
13533116 47 18412261710485138506
13911882 115 8934996014373700656
14251764 18 18187361035334858154
15183329 4 18333731286666528938
15196674 1 18411135861553264553
15788980 27 18334297578114926227
17349148 13 17022619775717156877
17844677 252 18341618135328354417
1813 80 13039193631985573139
19489759 90 18409729560764768179
200 152 14908185239598042243
20645477 70 16845586300211174942
21033648 144 16806168898834633143
21315763 129 18343299275537913377
21315764 268 18337382829217834797
21503847 285 16515407391081004564
21709351 56 18040992943211415359
22950370 63 9367353643000294339
23402539 116 18341889688540045620
23536379 177 18411417297838261898
23557571 272 18343586239530060641
23559900 14 18272368689961642578
23569943 247 17315060066117989674
2916195 48 18342450495410645345
3004659 81 18411135832026323466
345986 75 17096344178212795640
3472631 163 18342455933398560453
34797466 226 17775010124085962525
351380 180 18342737425190786048
3545911 37 18186520990765115347
4073 2 18114465664623186850
4340502 62 15697999647713268438
474 4 17385447622357254203
4990 188 18060142029072902303
5104073 3 18335420179497331923
5283173 99 18272088271220378377
57724786 102 16298684852884334045
59755656 215 18334859359953716206
6328613 192 18040726900432208796
6913067 236 15267054814181395666
7495541 125 17203042005746538282
9971528 1 17894910750392784980
9981440 41 16959867602273660484

> <PUBCHEM_SHAPE_MULTIPOLES>
425.18
14.24
1.92
1.17
6.1
0.77
0.6
1.67
-0.29
0.19
-0.23
-1.18
0.09
0.3

> <PUBCHEM_SHAPE_SELFOVERLAP>
908.756

> <PUBCHEM_SHAPE_VOLUME>
238.7

> <PUBCHEM_COORDINATE_TYPE>
2
5
10

$$$$
