51137550
  -OEChem-12032416243D

 57 60  0     1  0  0  0  0  0999 V2000
   -1.4595    1.3074    0.1223 O   0  0  0  0  0  0  0  0  0  0  0  0
    7.9632   -1.7715    0.4888 O   0  0  0  0  0  0  0  0  0  0  0  0
    2.5699    1.1802    0.5740 N   0  0  1  0  0  0  0  0  0  0  0  0
    5.7976   -1.4133   -0.2727 N   0  0  0  0  0  0  0  0  0  0  0  0
   -1.5243    3.3748   -0.7297 N   0  0  0  0  0  0  0  0  0  0  0  0
   -2.7787    2.8128   -0.8766 N   0  0  0  0  0  0  0  0  0  0  0  0
   -6.5811   -2.4441    0.1107 N   0  0  0  0  0  0  0  0  0  0  0  0
    3.3079   -0.0494    0.2952 C   0  0  0  0  0  0  0  0  0  0  0  0
    1.5205    1.4384   -0.4143 C   0  0  0  0  0  0  0  0  0  0  0  0
    0.6658    2.5146    0.2685 C   0  0  2  0  0  0  0  0  0  0  0  0
    1.8737    1.1326    1.8597 C   0  0  0  0  0  0  0  0  0  0  0  0
    0.9202    2.3173    1.7731 C   0  0  0  0  0  0  0  0  0  0  0  0
    3.9754    0.0381   -1.0834 C   0  0  0  0  0  0  0  0  0  0  0  0
    4.3595   -0.2911    1.3857 C   0  0  0  0  0  0  0  0  0  0  0  0
    4.8316   -1.1982   -1.3573 C   0  0  0  0  0  0  0  0  0  0  0  0
    5.2068   -1.5206    1.0629 C   0  0  0  0  0  0  0  0  0  0  0  0
   -0.7876    2.4612   -0.1422 C   0  0  0  0  0  0  0  0  0  0  0  0
    7.1752   -1.5552   -0.4356 C   0  0  0  0  0  0  0  0  0  0  0  0
    7.7060   -1.4287   -1.8413 C   0  0  0  0  0  0  0  0  0  0  0  0
   -2.6943    1.6067   -0.3657 C   0  0  0  0  0  0  0  0  0  0  0  0
   -3.6836    0.5755   -0.2444 C   0  0  0  0  0  0  0  0  0  0  0  0
   -4.9783    0.7921   -0.7164 C   0  0  0  0  0  0  0  0  0  0  0  0
   -3.3511   -0.6442    0.3448 C   0  0  0  0  0  0  0  0  0  0  0  0
   -5.9404   -0.2109   -0.5988 C   0  0  0  0  0  0  0  0  0  0  0  0
   -4.3132   -1.6472    0.4626 C   0  0  0  0  0  0  0  0  0  0  0  0
   -5.6078   -1.4306   -0.0092 C   0  0  0  0  0  0  0  0  0  0  0  0
   -6.2439   -3.7179    0.7148 C   0  0  0  0  0  0  0  0  0  0  0  0
   -7.9294   -2.2283   -0.3754 C   0  0  0  0  0  0  0  0  0  0  0  0
    2.6196   -0.9073    0.2881 H   0  0  0  0  0  0  0  0  0  0  0  0
    0.9347    0.5352   -0.6304 H   0  0  0  0  0  0  0  0  0  0  0  0
    1.9186    1.8275   -1.3576 H   0  0  0  0  0  0  0  0  0  0  0  0
    1.0497    3.5057   -0.0108 H   0  0  0  0  0  0  0  0  0  0  0  0
    2.5425    1.2557    2.7170 H   0  0  0  0  0  0  0  0  0  0  0  0
    1.3015    0.2041    1.9831 H   0  0  0  0  0  0  0  0  0  0  0  0
    0.0071    2.1378    2.3504 H   0  0  0  0  0  0  0  0  0  0  0  0
    1.3993    3.2166    2.1802 H   0  0  0  0  0  0  0  0  0  0  0  0
    4.6102    0.9326   -1.1378 H   0  0  0  0  0  0  0  0  0  0  0  0
    3.2346    0.1122   -1.8871 H   0  0  0  0  0  0  0  0  0  0  0  0
    5.0165    0.5843    1.4750 H   0  0  0  0  0  0  0  0  0  0  0  0
    3.8972   -0.4561    2.3650 H   0  0  0  0  0  0  0  0  0  0  0  0
    4.2019   -2.0944   -1.4111 H   0  0  0  0  0  0  0  0  0  0  0  0
    5.3217   -1.0912   -2.3265 H   0  0  0  0  0  0  0  0  0  0  0  0
    5.9839   -1.6428    1.8241 H   0  0  0  0  0  0  0  0  0  0  0  0
    4.5900   -2.4271    1.0762 H   0  0  0  0  0  0  0  0  0  0  0  0
    8.7936   -1.5506   -1.8318 H   0  0  0  0  0  0  0  0  0  0  0  0
    7.2814   -2.2096   -2.4777 H   0  0  0  0  0  0  0  0  0  0  0  0
    7.4781   -0.4382   -2.2438 H   0  0  0  0  0  0  0  0  0  0  0  0
   -5.2591    1.7351   -1.1793 H   0  0  0  0  0  0  0  0  0  0  0  0
   -2.3531   -0.8497    0.7239 H   0  0  0  0  0  0  0  0  0  0  0  0
   -6.9329    0.0062   -0.9812 H   0  0  0  0  0  0  0  0  0  0  0  0
   -4.0055   -2.5781    0.9288 H   0  0  0  0  0  0  0  0  0  0  0  0
   -5.4552   -4.2275    0.1501 H   0  0  0  0  0  0  0  0  0  0  0  0
   -5.9272   -3.5908    1.7559 H   0  0  0  0  0  0  0  0  0  0  0  0
   -7.1030   -4.3979    0.7320 H   0  0  0  0  0  0  0  0  0  0  0  0
   -8.4091   -1.3921    0.1454 H   0  0  0  0  0  0  0  0  0  0  0  0
   -7.9358   -2.0413   -1.4550 H   0  0  0  0  0  0  0  0  0  0  0  0
   -8.5655   -3.1046   -0.2076 H   0  0  0  0  0  0  0  0  0  0  0  0
  1 17  1  0  0  0  0
  1 20  1  0  0  0  0
  2 18  2  0  0  0  0
  3  8  1  0  0  0  0
  3  9  1  0  0  0  0
  3 11  1  0  0  0  0
  4 15  1  0  0  0  0
  4 16  1  0  0  0  0
  4 18  1  0  0  0  0
  5  6  1  0  0  0  0
  5 17  2  0  0  0  0
  6 20  2  0  0  0  0
  7 26  1  0  0  0  0
  7 27  1  0  0  0  0
  7 28  1  0  0  0  0
  8 13  1  0  0  0  0
  8 14  1  0  0  0  0
  8 29  1  0  0  0  0
  9 10  1  0  0  0  0
  9 30  1  0  0  0  0
  9 31  1  0  0  0  0
 10 12  1  0  0  0  0
 10 17  1  0  0  0  0
 10 32  1  0  0  0  0
 11 12  1  0  0  0  0
 11 33  1  0  0  0  0
 11 34  1  0  0  0  0
 12 35  1  0  0  0  0
 12 36  1  0  0  0  0
 13 15  1  0  0  0  0
 13 37  1  0  0  0  0
 13 38  1  0  0  0  0
 14 16  1  0  0  0  0
 14 39  1  0  0  0  0
 14 40  1  0  0  0  0
 15 41  1  0  0  0  0
 15 42  1  0  0  0  0
 16 43  1  0  0  0  0
 16 44  1  0  0  0  0
 18 19  1  0  0  0  0
 19 45  1  0  0  0  0
 19 46  1  0  0  0  0
 19 47  1  0  0  0  0
 20 21  1  0  0  0  0
 21 22  2  0  0  0  0
 21 23  1  0  0  0  0
 22 24  1  0  0  0  0
 22 48  1  0  0  0  0
 23 25  2  0  0  0  0
 23 49  1  0  0  0  0
 24 26  2  0  0  0  0
 24 50  1  0  0  0  0
 25 26  1  0  0  0  0
 25 51  1  0  0  0  0
 27 52  1  0  0  0  0
 27 53  1  0  0  0  0
 27 54  1  0  0  0  0
 28 55  1  0  0  0  0
 28 56  1  0  0  0  0
 28 57  1  0  0  0  0
M  END
> <PUBCHEM_COMPOUND_CID>
51137550

> <PUBCHEM_CONFORMER_RMSD>
0.8

> <PUBCHEM_CONFORMER_DIVERSEORDER>
1
175
222
265
178
296
135
246
32
271
278
119
217
293
235
100
150
262
287
93
124
55
231
255
211
80
266
45
249
49
107
141
258
51
244
131
35
173
288
238
76
297
66
239
240
16
290
214
272
60
139
280
248
292
44
132
52
198
136
114
47
24
169
188
50
62
286
242
102
184
104
105
260
146
163
112
36
69
48
56
115
46
164
99
5
236
34
195
18
142
94
193
189
117
88
20
194
234
267
284
277
247
122
300
127
279
79
138
187
22
276
84
274
9
230
257
185
43
41
96
158
137
133
254
75
101
91
245
270
153
174
61
157
120
109
229
159
226
264
291
183
64
197
85
186
295
172
27
191
233
259
199
90
95
299
268
3
220
281
58
106
72
252
216
130
7
140
205
110
200
241
10
103
171
219
15
253
14
190
97
26
143
152
196
203
59
204
73
125
23
165
128
162
208
224
285
8
275
263
232
209
13
154
289
6
166
251
177
78
29
57
42
63
116
126
149
89
160
243
4
25
210
182
180
206
167
179
223
21
221
2
17
294
83
37
225
129
121
269
123
228
237
74
147
218
40
19
113
212
38
250
68
134
207
98
53
192
144
92
65
215
28
118
227
11
151
170
176
283
67
108
282
148
273
70
161
145
86
33
256
31
12
111
202
82
71
87
156
298
181
261
213
201
39
77
155
30
54
81
168

> <PUBCHEM_MMFF94_PARTIAL_CHARGES>
29
1 -0.28
10 0.18
11 0.27
15 0.3
16 0.3
17 0.3
18 0.57
19 0.06
2 -0.57
20 0.43
21 0.05
22 -0.15
23 -0.15
24 -0.15
25 -0.15
26 0.1
27 0.37
28 0.37
3 -0.81
4 -0.66
48 0.15
49 0.15
5 -0.34
50 0.15
51 0.15
6 -0.34
7 -0.84
8 0.27
9 0.27

> <PUBCHEM_EFFECTIVE_ROTOR_COUNT>
7.2

> <PUBCHEM_PHARMACOPHORE_FEATURES>
7
1 2 acceptor
1 3 cation
1 7 cation
5 1 5 6 17 20 rings
5 3 9 10 11 12 rings
6 21 22 23 24 25 26 rings
6 4 8 13 14 15 16 rings

> <PUBCHEM_HEAVY_ATOM_COUNT>
28

> <PUBCHEM_ATOM_DEF_STEREO_COUNT>
1

> <PUBCHEM_ATOM_UDEF_STEREO_COUNT>
0

> <PUBCHEM_BOND_DEF_STEREO_COUNT>
0

> <PUBCHEM_BOND_UDEF_STEREO_COUNT>
0

> <PUBCHEM_ISOTOPIC_ATOM_COUNT>
0

> <PUBCHEM_COMPONENT_COUNT>
1

> <PUBCHEM_CACTVS_TAUTO_COUNT>
1

> <PUBCHEM_CONFORMER_ID>
030C4C0E00000001

> <PUBCHEM_MMFF94_ENERGY>
67.2097

> <PUBCHEM_FEATURE_SELFOVERLAP>
35.523

> <PUBCHEM_SHAPE_FINGERPRINT>
10 15 10879990276834377229
10050765 1 18409165528306664829
10622 236 17605817137096118954
10864689 126 18261667160685516299
10883706 17 18126294035328725302
10917259 69 18268707218227878317
10981352 41 18131062788027620991
11135609 201 10159707863637444435
11273773 42 13118271543954693399
117089 54 18263370333950463051
11756154 67 18410295852055656975
11796584 16 18266455400215835308
12166972 35 17676489488390698623
12342043 65 18272644666716173913
12633257 1 16343141454302653533
12643181 29 18337667525714883949
12760667 363 18343017775039260173
12988421 55 12247680427066863265
13103583 49 14404889294121735204
13257819 101 11602827886841342560
13383661 66 18130802122357902498
13402501 40 18343019982219933831
13533116 47 18057604476943628865
13540713 4 18339622512955658505
13631057 29 18336828598416562024
13673619 4 18343584048848956481
13690498 29 18113336380055352365
13757389 114 17751351786611009621
13782708 43 18272644653809613849
13947930 73 18130785715176397175
14068700 675 18260268542343136580
14123256 34 18342739619639590270
14216079 64 18411697729982035623
14251740 57 18266174118639071833
14251764 30 18410011048304718199
14420673 8 18410012152897186427
14866123 147 18410293576524681065
14931854 50 17676199174165811035
15152005 77 18060419123484523087
15183329 4 17167861954579487058
15461852 350 18262806147889829422
15510800 12 18273217486556981095
15803439 3 14779265327945657657
16120349 21 18411142425218101105
17138139 8 17967527961299498730
18335252 98 18273494581790266280
19438510 23 9079119959760818269
195137 95 8790887359143315470
20737093 207 17750500795277242970
20775438 99 17685203272543887075
20982279 24 16628849354119607766
21054139 6 18041282059357120434
21095086 4 18339085985899069851
21130935 74 18053947540314942955
21133410 32 15865224418405664936
21196832 93 18334300902799713738
21307412 95 18336253605796803893
21344244 246 18335429019400785628
21585481 104 15647600156737343743
21623969 137 17417809501121821238
21682296 61 18339361985367114163
229767 8 17972889339307112939
23522609 53 18120971410078929365
23559900 14 18335976567137142589
255183 451 18409449223485535981
270888 7 9223237342728368793
2747138 104 17632293437839152280
2835820 33 18411696587926884658
2835820 40 8068381832162415519
2838139 119 8141788470530220112
3004659 81 18040150725551724652
3862424 121 17678474171546605755
393628 194 9367342635342987483
4107672 100 17749947761801388093
4330586 98 17749968772406911578
437795 70 18261393394478666267
437815 12 18131067121517643521
439807 62 18334579053165600351
44880168 125 18201151170152878039
465052 167 18272372009364986757
5104073 3 18131633417831233873
54039377 194 18272093786343209630
56633871 153 18201152282501753311
5718773 13 18411698816007485383
59682541 52 14346059906980901888
6009941 240 17560241284665621449
6138700 20 18408321095249970755
636775 8 18272379629618242974
6700243 42 17982479039053023780
7970288 3 18335133228738381763
86090 222 17560539351079943318
8863177 126 18342452685690679811
9849439 229 10375878484934733613
9980921 177 9655033121510217236
9980921 52 17554601078707062335
999808 66 17988642965255902502

> <PUBCHEM_SHAPE_MULTIPOLES>
539.58
22.59
3.73
1.36
6.84
0.46
0.2
-27.51
-4.39
-4.23
0.16
1.98
0.11
2.21

> <PUBCHEM_SHAPE_SELFOVERLAP>
1146.066

> <PUBCHEM_SHAPE_VOLUME>
303.1

> <PUBCHEM_COORDINATE_TYPE>
2
5
10

$$$$
