75367641
  -OEChem-12032416383D

 45 47  0     1  0  0  0  0  0999 V2000
    0.3103   -2.1378    0.5617 F   0  0  0  0  0  0  0  0  0  0  0  0
   -6.3146   -0.4012   -0.4041 F   0  0  0  0  0  0  0  0  0  0  0  0
   -5.1378   -1.7013   -1.6802 F   0  0  0  0  0  0  0  0  0  0  0  0
   -5.4851   -2.2448    0.3963 F   0  0  0  0  0  0  0  0  0  0  0  0
    3.8105   -5.2587   -0.0634 F   0  0  0  0  0  0  0  0  0  0  0  0
    1.0992    4.7730    0.2832 O   0  0  0  0  0  0  0  0  0  0  0  0
   -0.5673    1.5910    1.0219 O   0  0  0  0  0  0  0  0  0  0  0  0
    3.9706    1.2653    0.0269 O   0  0  0  0  0  0  0  0  0  0  0  0
    2.0197    2.2105   -0.7798 N   0  0  0  0  0  0  0  0  0  0  0  0
    2.0265   -0.0079    0.0232 N   0  0  0  0  0  0  0  0  0  0  0  0
   -2.3877    1.3301   -0.3905 N   0  0  0  0  0  0  0  0  0  0  0  0
   -0.2344    2.7047    0.1941 C   0  0  2  0  0  0  0  0  0  0  0  0
    0.5676    2.2082   -1.0108 C   0  0  0  0  0  0  0  0  0  0  0  0
    2.6877    3.4837   -1.0627 C   0  0  0  0  0  0  0  0  0  0  0  0
    0.4444    3.7705    1.0549 C   0  0  0  0  0  0  0  0  0  0  0  0
    2.4823    4.4913    0.0615 C   0  0  0  0  0  0  0  0  0  0  0  0
    2.7690    1.1470   -0.2247 C   0  0  0  0  0  0  0  0  0  0  0  0
   -1.6975    0.8961    0.6879 C   0  0  0  0  0  0  0  0  0  0  0  0
    2.4802   -1.3500    0.0017 C   0  0  0  0  0  0  0  0  0  0  0  0
   -2.0676   -0.1946    1.4581 C   0  0  0  0  0  0  0  0  0  0  0  0
   -3.2201   -0.8845    1.0983 C   0  0  0  0  0  0  0  0  0  0  0  0
   -3.9570   -0.4682   -0.0050 C   0  0  0  0  0  0  0  0  0  0  0  0
    1.5950   -2.3928    0.2757 C   0  0  0  0  0  0  0  0  0  0  0  0
    3.8147   -1.6278   -0.2946 C   0  0  0  0  0  0  0  0  0  0  0  0
   -3.5023    0.6348   -0.7096 C   0  0  0  0  0  0  0  0  0  0  0  0
    2.0444   -3.7131    0.2538 C   0  0  0  0  0  0  0  0  0  0  0  0
    4.2642   -2.9480   -0.3164 C   0  0  0  0  0  0  0  0  0  0  0  0
   -5.1939   -1.1848   -0.4152 C   0  0  0  0  0  0  0  0  0  0  0  0
    3.3790   -3.9908   -0.0422 C   0  0  0  0  0  0  0  0  0  0  0  0
   -1.1378    3.1957   -0.1932 H   0  0  0  0  0  0  0  0  0  0  0  0
    0.2575    1.2067   -1.3249 H   0  0  0  0  0  0  0  0  0  0  0  0
    0.3721    2.8625   -1.8693 H   0  0  0  0  0  0  0  0  0  0  0  0
    2.2916    3.8745   -2.0068 H   0  0  0  0  0  0  0  0  0  0  0  0
    3.7606    3.3177   -1.2060 H   0  0  0  0  0  0  0  0  0  0  0  0
   -0.3253    4.2719    1.6544 H   0  0  0  0  0  0  0  0  0  0  0  0
    1.1250    3.3190    1.7885 H   0  0  0  0  0  0  0  0  0  0  0  0
    2.9572    5.4359   -0.2244 H   0  0  0  0  0  0  0  0  0  0  0  0
    2.9611    4.1629    0.9918 H   0  0  0  0  0  0  0  0  0  0  0  0
    1.0311    0.0967    0.1926 H   0  0  0  0  0  0  0  0  0  0  0  0
   -1.4807   -0.5069    2.3150 H   0  0  0  0  0  0  0  0  0  0  0  0
   -3.5277   -1.7430    1.6884 H   0  0  0  0  0  0  0  0  0  0  0  0
    4.5417   -0.8635   -0.5403 H   0  0  0  0  0  0  0  0  0  0  0  0
   -4.0354    1.0059   -1.5795 H   0  0  0  0  0  0  0  0  0  0  0  0
    1.3554   -4.5248    0.4671 H   0  0  0  0  0  0  0  0  0  0  0  0
    5.3017   -3.1660   -0.5522 H   0  0  0  0  0  0  0  0  0  0  0  0
  1 23  1  0  0  0  0
  2 28  1  0  0  0  0
  3 28  1  0  0  0  0
  4 28  1  0  0  0  0
  5 29  1  0  0  0  0
  6 15  1  0  0  0  0
  6 16  1  0  0  0  0
  7 12  1  0  0  0  0
  7 18  1  0  0  0  0
  8 17  2  0  0  0  0
  9 13  1  0  0  0  0
  9 14  1  0  0  0  0
  9 17  1  0  0  0  0
 10 17  1  0  0  0  0
 10 19  1  0  0  0  0
 10 39  1  0  0  0  0
 11 18  2  0  0  0  0
 11 25  1  0  0  0  0
 12 13  1  0  0  0  0
 12 15  1  0  0  0  0
 12 30  1  0  0  0  0
 13 31  1  0  0  0  0
 13 32  1  0  0  0  0
 14 16  1  0  0  0  0
 14 33  1  0  0  0  0
 14 34  1  0  0  0  0
 15 35  1  0  0  0  0
 15 36  1  0  0  0  0
 16 37  1  0  0  0  0
 16 38  1  0  0  0  0
 18 20  1  0  0  0  0
 19 23  2  0  0  0  0
 19 24  1  0  0  0  0
 20 21  2  0  0  0  0
 20 40  1  0  0  0  0
 21 22  1  0  0  0  0
 21 41  1  0  0  0  0
 22 25  2  0  0  0  0
 22 28  1  0  0  0  0
 23 26  1  0  0  0  0
 24 27  2  0  0  0  0
 24 42  1  0  0  0  0
 25 43  1  0  0  0  0
 26 29  2  0  0  0  0
 26 44  1  0  0  0  0
 27 29  1  0  0  0  0
 27 45  1  0  0  0  0
M  END
> <PUBCHEM_COMPOUND_CID>
75367641

> <PUBCHEM_CONFORMER_RMSD>
1.4

> <PUBCHEM_CONFORMER_DIVERSEORDER>
1
39
48
11
37
17
28
9
31
20
57
46
6
12
14
24
23
18
13
30
35
7
47
66
64
32
40
2
63
43
55
10
42
26
19
3
21
25
33
41
59
68
29
61
54
56
49
45
60
67
52
4
22
36
27
53
44
16
38
58
34
5
65
15
51
50
62
8

> <PUBCHEM_MMFF94_PARTIAL_CHARGES>
36
1 -0.19
10 -0.55
11 -0.62
12 0.28
13 0.3
14 0.3
15 0.28
16 0.28
17 0.69
18 0.39
19 0.12
2 -0.34
20 -0.15
21 -0.15
22 -0.14
23 0.19
24 -0.15
25 0.16
26 -0.15
27 -0.15
28 1.16
29 0.19
3 -0.34
39 0.37
4 -0.34
40 0.15
41 0.15
42 0.15
43 0.15
44 0.15
45 0.15
5 -0.19
6 -0.56
7 -0.36
8 -0.57
9 -0.66

> <PUBCHEM_EFFECTIVE_ROTOR_COUNT>
7.4

> <PUBCHEM_PHARMACOPHORE_FEATURES>
6
1 10 donor
1 6 acceptor
1 8 acceptor
6 11 18 20 21 22 25 rings
6 19 23 24 26 27 29 rings
7 6 9 12 13 14 15 16 rings

> <PUBCHEM_HEAVY_ATOM_COUNT>
29

> <PUBCHEM_ATOM_DEF_STEREO_COUNT>
1

> <PUBCHEM_ATOM_UDEF_STEREO_COUNT>
0

> <PUBCHEM_BOND_DEF_STEREO_COUNT>
0

> <PUBCHEM_BOND_UDEF_STEREO_COUNT>
0

> <PUBCHEM_ISOTOPIC_ATOM_COUNT>
0

> <PUBCHEM_COMPONENT_COUNT>
1

> <PUBCHEM_CACTVS_TAUTO_COUNT>
2

> <PUBCHEM_CONFORMER_ID>
047E04D900000001

> <PUBCHEM_MMFF94_ENERGY>
79.6953

> <PUBCHEM_FEATURE_SELFOVERLAP>
30.447

> <PUBCHEM_SHAPE_FINGERPRINT>
10411042 1 18266179426775934114
10622 236 17988060289183238967
10940486 97 17326350822727989494
1100329 8 18123471837565288256
11014199 57 18122911927984352458
11045515 52 18189899703997522805
11552529 35 17694501451738151946
11719270 70 18266171923789847464
12107183 9 18126579929467489657
12553582 1 18120674439064734904
12788726 201 17540812793953738721
13004483 165 18049999987356852865
13533116 47 18340208600598379993
13692114 37 17478313696977841072
138480 1 18410296887036617488
13911987 19 18046367463517898484
14659021 117 17615676342140673338
14844126 61 17398678904688660298
14863182 85 18338515360975980632
14866123 147 17547010723978255449
15400415 2 17834396001307227033
17138139 8 17125911398597579943
19319366 153 18055067928670494781
19930381 70 18409449223601073569
20028762 73 18271809081598370126
20645477 70 18188770681644519073
20775438 99 17687699962418117629
20775530 9 18264212404726222674
21133410 171 17249443376952378939
21285901 2 17604138328953762829
23559900 14 18408597055240584787
23569914 152 17834921259122759167
4280585 95 18046336440742032090
4616759 239 16976433433438025114
46194498 28 17821727277833304029
463206 1 18411420656708733711
5265222 85 15889425343822656582
5309563 4 18339927008971997110
59682541 52 18268408283918147727
613672 6 18121757479134637119
70251023 43 18408887313351322633
9709674 26 18333172765013988667
9777508 108 17115789376020021736

> <PUBCHEM_SHAPE_MULTIPOLES>
527.89
10.15
6.91
1.03
13.57
2.16
0
-11.01
2.34
-9.56
-0.11
0.74
0.24
-0.65

> <PUBCHEM_SHAPE_SELFOVERLAP>
1131.044

> <PUBCHEM_SHAPE_VOLUME>
289.6

> <PUBCHEM_COORDINATE_TYPE>
2
5
10

$$$$
