28962854
  -OEChem-12032416143D

 69 71  0     1  0  0  0  0  0999 V2000
   -0.4408   -0.8982    2.1361 O   0  0  0  0  0  0  0  0  0  0  0  0
   -5.1152   -1.9243   -0.2447 O   0  0  0  0  0  0  0  0  0  0  0  0
    5.4406    1.9695   -0.0137 O   0  0  0  0  0  0  0  0  0  0  0  0
    7.8993    1.0483    0.5807 O   0  0  0  0  0  0  0  0  0  0  0  0
    4.5163   -0.1620    0.0801 N   0  0  0  0  0  0  0  0  0  0  0  0
   -4.5994    0.1269    0.7075 N   0  0  0  0  0  0  0  0  0  0  0  0
    0.5310   -0.4340   -1.5266 C   0  0  1  0  0  0  0  0  0  0  0  0
    0.6652   -0.3601    0.0308 C   0  0  2  0  0  0  0  0  0  0  0  0
    2.1266   -0.7163    0.4835 C   0  0  1  0  0  0  0  0  0  0  0  0
   -0.4667   -1.1641    0.7330 C   0  0  2  0  0  0  0  0  0  0  0  0
   -0.8838    0.0309   -1.9453 C   0  0  0  0  0  0  0  0  0  0  0  0
   -1.8756   -0.7670    0.2339 C   0  0  1  0  0  0  0  0  0  0  0  0
    1.5530    0.5334   -2.1672 C   0  0  0  0  0  0  0  0  0  0  0  0
    3.1516    0.2138   -0.2246 C   0  0  2  0  0  0  0  0  0  0  0  0
   -1.9940   -0.7800   -1.2901 C   0  0  0  0  0  0  0  0  0  0  0  0
    2.9878    0.2534   -1.7437 C   0  0  0  0  0  0  0  0  0  0  0  0
    0.7681   -1.8636   -2.0761 C   0  0  0  0  0  0  0  0  0  0  0  0
   -2.9663   -1.6588    0.8400 C   0  0  2  0  0  0  0  0  0  0  0  0
    2.3371   -0.6352    2.0049 C   0  0  0  0  0  0  0  0  0  0  0  0
   -2.7167   -3.1171    0.4714 C   0  0  0  0  0  0  0  0  0  0  0  0
   -4.3403   -1.1932    0.3684 C   0  0  0  0  0  0  0  0  0  0  0  0
    5.5474    0.7583    0.1588 C   0  0  0  0  0  0  0  0  0  0  0  0
   -5.8332    0.7917    0.3676 C   0  0  0  0  0  0  0  0  0  0  0  0
   -5.7259    1.5322   -0.9592 C   0  0  0  0  0  0  0  0  0  0  0  0
   -6.1676    1.9073    1.3509 C   0  0  0  0  0  0  0  0  0  0  0  0
    6.8650    0.0915    0.4923 C   0  0  0  0  0  0  0  0  0  0  0  0
   -5.0485    2.8538   -0.6075 C   0  0  0  0  0  0  0  0  0  0  0  0
   -5.3680    3.1149    0.8647 C   0  0  0  0  0  0  0  0  0  0  0  0
    9.1528    0.4479    0.8940 C   0  0  0  0  0  0  0  0  0  0  0  0
    0.5170    0.6917    0.3244 H   0  0  0  0  0  0  0  0  0  0  0  0
    2.3422   -1.7544    0.2005 H   0  0  0  0  0  0  0  0  0  0  0  0
   -0.2537   -2.2259    0.5990 H   0  0  0  0  0  0  0  0  0  0  0  0
   -0.9948   -0.0245   -3.0359 H   0  0  0  0  0  0  0  0  0  0  0  0
   -1.0199    1.0877   -1.6780 H   0  0  0  0  0  0  0  0  0  0  0  0
   -2.0375    0.2684    0.5618 H   0  0  0  0  0  0  0  0  0  0  0  0
    1.3059    1.5672   -1.8902 H   0  0  0  0  0  0  0  0  0  0  0  0
    1.4873    0.4858   -3.2616 H   0  0  0  0  0  0  0  0  0  0  0  0
    2.9981    1.2343    0.1527 H   0  0  0  0  0  0  0  0  0  0  0  0
   -2.9470   -0.3443   -1.6108 H   0  0  0  0  0  0  0  0  0  0  0  0
   -1.9707   -1.7891   -1.7067 H   0  0  0  0  0  0  0  0  0  0  0  0
    3.3342   -0.6886   -2.1862 H   0  0  0  0  0  0  0  0  0  0  0  0
    3.6387    1.0292   -2.1673 H   0  0  0  0  0  0  0  0  0  0  0  0
    1.7803   -2.2291   -1.8854 H   0  0  0  0  0  0  0  0  0  0  0  0
    0.6201   -1.8880   -3.1622 H   0  0  0  0  0  0  0  0  0  0  0  0
    0.0867   -2.5988   -1.6392 H   0  0  0  0  0  0  0  0  0  0  0  0
   -2.9604   -1.5714    1.9341 H   0  0  0  0  0  0  0  0  0  0  0  0
    1.9861    0.3218    2.4043 H   0  0  0  0  0  0  0  0  0  0  0  0
    3.3919   -0.7413    2.2784 H   0  0  0  0  0  0  0  0  0  0  0  0
    1.8199   -1.4502    2.5189 H   0  0  0  0  0  0  0  0  0  0  0  0
    4.7288   -1.1509    0.1768 H   0  0  0  0  0  0  0  0  0  0  0  0
   -0.5733    0.0563    2.2657 H   0  0  0  0  0  0  0  0  0  0  0  0
   -3.5197   -3.7355    0.8940 H   0  0  0  0  0  0  0  0  0  0  0  0
   -1.7930   -3.5159    0.8962 H   0  0  0  0  0  0  0  0  0  0  0  0
   -2.7318   -3.3176   -0.6023 H   0  0  0  0  0  0  0  0  0  0  0  0
   -3.9123    0.6534    1.2373 H   0  0  0  0  0  0  0  0  0  0  0  0
   -6.6333    0.0445    0.3351 H   0  0  0  0  0  0  0  0  0  0  0  0
   -6.7304    1.7363   -1.3501 H   0  0  0  0  0  0  0  0  0  0  0  0
   -5.1730    0.9810   -1.7261 H   0  0  0  0  0  0  0  0  0  0  0  0
   -5.9362    1.6549    2.3906 H   0  0  0  0  0  0  0  0  0  0  0  0
   -7.2379    2.1406    1.2923 H   0  0  0  0  0  0  0  0  0  0  0  0
    6.7570   -0.4311    1.4499 H   0  0  0  0  0  0  0  0  0  0  0  0
    7.0951   -0.6350   -0.2958 H   0  0  0  0  0  0  0  0  0  0  0  0
   -5.3968    3.6670   -1.2521 H   0  0  0  0  0  0  0  0  0  0  0  0
   -3.9634    2.7709   -0.7414 H   0  0  0  0  0  0  0  0  0  0  0  0
   -4.4378    3.2155    1.4357 H   0  0  0  0  0  0  0  0  0  0  0  0
   -5.9346    4.0422    0.9979 H   0  0  0  0  0  0  0  0  0  0  0  0
    9.9075    1.2370    0.9479 H   0  0  0  0  0  0  0  0  0  0  0  0
    9.4422   -0.2617    0.1130 H   0  0  0  0  0  0  0  0  0  0  0  0
    9.1028   -0.0565    1.8638 H   0  0  0  0  0  0  0  0  0  0  0  0
  1 10  1  0  0  0  0
  1 51  1  0  0  0  0
  2 21  2  0  0  0  0
  3 22  2  0  0  0  0
  4 26  1  0  0  0  0
  4 29  1  0  0  0  0
  5 14  1  0  0  0  0
  5 22  1  0  0  0  0
  5 50  1  0  0  0  0
  6 21  1  0  0  0  0
  6 23  1  0  0  0  0
  6 55  1  0  0  0  0
  7  8  1  0  0  0  0
  7 11  1  0  0  0  0
  7 13  1  0  0  0  0
  7 17  1  0  0  0  0
  8  9  1  0  0  0  0
  8 10  1  0  0  0  0
  8 30  1  0  0  0  0
  9 14  1  0  0  0  0
  9 19  1  0  0  0  0
  9 31  1  0  0  0  0
 10 12  1  0  0  0  0
 10 32  1  0  0  0  0
 11 15  1  0  0  0  0
 11 33  1  0  0  0  0
 11 34  1  0  0  0  0
 12 15  1  0  0  0  0
 12 18  1  0  0  0  0
 12 35  1  0  0  0  0
 13 16  1  0  0  0  0
 13 36  1  0  0  0  0
 13 37  1  0  0  0  0
 14 16  1  0  0  0  0
 14 38  1  0  0  0  0
 15 39  1  0  0  0  0
 15 40  1  0  0  0  0
 16 41  1  0  0  0  0
 16 42  1  0  0  0  0
 17 43  1  0  0  0  0
 17 44  1  0  0  0  0
 17 45  1  0  0  0  0
 18 20  1  0  0  0  0
 18 21  1  0  0  0  0
 18 46  1  0  0  0  0
 19 47  1  0  0  0  0
 19 48  1  0  0  0  0
 19 49  1  0  0  0  0
 20 52  1  0  0  0  0
 20 53  1  0  0  0  0
 20 54  1  0  0  0  0
 22 26  1  0  0  0  0
 23 24  1  0  0  0  0
 23 25  1  0  0  0  0
 23 56  1  0  0  0  0
 24 27  1  0  0  0  0
 24 57  1  0  0  0  0
 24 58  1  0  0  0  0
 25 28  1  0  0  0  0
 25 59  1  0  0  0  0
 25 60  1  0  0  0  0
 26 61  1  0  0  0  0
 26 62  1  0  0  0  0
 27 28  1  0  0  0  0
 27 63  1  0  0  0  0
 27 64  1  0  0  0  0
 28 65  1  0  0  0  0
 28 66  1  0  0  0  0
 29 67  1  0  0  0  0
 29 68  1  0  0  0  0
 29 69  1  0  0  0  0
M  END
> <PUBCHEM_COMPOUND_CID>
28962854

> <PUBCHEM_CONFORMER_RMSD>
1

> <PUBCHEM_CONFORMER_DIVERSEORDER>
1
38
56
20
45
36
34
51
11
54
26
3
50
29
41
24
23
53
44
5
37
59
46
35
47
31
33
27
13
19
7
18
52
40
32
16
25
14
39
28
6
22
17
58
21
9
55
10
4
2
48
43
30
8
42
12
49
15
57

> <PUBCHEM_MMFF94_PARTIAL_CHARGES>
17
1 -0.68
10 0.28
14 0.3
18 0.06
2 -0.57
21 0.57
22 0.57
23 0.3
26 0.34
29 0.28
3 -0.57
4 -0.56
5 -0.73
50 0.37
51 0.4
55 0.37
6 -0.73

> <PUBCHEM_EFFECTIVE_ROTOR_COUNT>
10.6

> <PUBCHEM_PHARMACOPHORE_FEATURES>
11
1 1 acceptor
1 1 donor
1 2 acceptor
1 20 hydrophobe
1 3 acceptor
1 4 acceptor
1 5 donor
1 6 donor
5 23 24 25 27 28 rings
6 7 8 10 11 12 15 rings
6 7 8 9 13 14 16 rings

> <PUBCHEM_HEAVY_ATOM_COUNT>
29

> <PUBCHEM_ATOM_DEF_STEREO_COUNT>
7

> <PUBCHEM_ATOM_UDEF_STEREO_COUNT>
0

> <PUBCHEM_BOND_DEF_STEREO_COUNT>
0

> <PUBCHEM_BOND_UDEF_STEREO_COUNT>
0

> <PUBCHEM_ISOTOPIC_ATOM_COUNT>
0

> <PUBCHEM_COMPONENT_COUNT>
1

> <PUBCHEM_CACTVS_TAUTO_COUNT>
4

> <PUBCHEM_CONFORMER_ID>
01B9F02600000001

> <PUBCHEM_MMFF94_ENERGY>
76.2254

> <PUBCHEM_FEATURE_SELFOVERLAP>
55.843

> <PUBCHEM_SHAPE_FINGERPRINT>
10554248 39 16630254632341103876
11578080 2 17988087695015424799
11578821 258 17917428791839105400
11720765 8 16905826090709583399
12422481 6 16950843571178489679
13140716 1 16009888310138910842
13257819 101 18059856134406156413
13540713 5 16228042420548357895
13583140 156 17846497045898762511
13673619 4 11314316057097864623
13911987 19 16200434650348115405
13914758 101 18411421705123313802
14251764 30 10953460747408484765
14767858 380 14189574130760839196
14849402 71 17386861667478694996
14950920 106 14490775454930077485
15021287 119 16588029017362077253
15238133 3 18261685825948259396
15484559 13 14536143258632619411
17980427 23 18333736848849514733
20739085 24 15864649296862819639
20982279 24 14201952339169280840
21033648 29 18058998575882706088
21150785 3 11240000066661729304
21267235 1 15719106968822473318
21756936 100 18410569579100555149
22122407 14 18339089292923667856
22288116 15 12031782591331391964
22393880 68 15338539567462589117
23522609 53 17169013173714153580
23559900 14 18199202689108082167
23569914 2 17624083448022564256
23569943 247 16806707517983186754
23576562 1 16629664280006067752
2838139 119 18130783468887440673
335352 9 16298660693904880846
392239 28 17603580850540763012
4093350 32 18339075996322019858
44802255 64 17561081423154503903
465052 167 13695588858596540732
484989 97 14476377409955744365
58260988 114 15575290916613357539
7226269 152 18411420575283683913
8863177 126 11963687650079517741
9849439 229 17905053552487682497
999808 66 13912321270364200664

> <PUBCHEM_SHAPE_MULTIPOLES>
563.37
19.34
2.55
1.87
28.04
0.45
-0.55
13.93
7.04
-5.18
0.33
0.29
-0.24
0.08

> <PUBCHEM_SHAPE_SELFOVERLAP>
1151.671

> <PUBCHEM_SHAPE_VOLUME>
323.8

> <PUBCHEM_COORDINATE_TYPE>
2
5
10

$$$$
