45784285
  -OEChem-12032416243D

 50 53  0     1  0  0  0  0  0999 V2000
    6.7284   -1.1579   -0.0965 O   0  0  0  0  0  0  0  0  0  0  0  0
   -2.4413    1.0651    0.2752 N   0  0  1  0  0  0  0  0  0  0  0  0
    2.1050   -0.1571    1.1686 N   0  0  0  0  0  0  0  0  0  0  0  0
    1.6684    0.9428   -0.7126 N   0  0  0  0  0  0  0  0  0  0  0  0
   -4.3621   -0.3051   -0.4102 C   0  0  0  0  0  0  0  0  0  0  0  0
   -3.4798    0.8998   -0.7312 C   0  0  0  0  0  0  0  0  0  0  0  0
   -0.2179    0.7704    0.9602 C   0  0  2  0  0  0  0  0  0  0  0  0
   -1.3023    0.1714    0.0545 C   0  0  0  0  0  0  0  0  0  0  0  0
   -1.8703    2.4119    0.2704 C   0  0  0  0  0  0  0  0  0  0  0  0
   -5.3869   -0.5396   -1.5282 C   0  0  0  0  0  0  0  0  0  0  0  0
   -5.0625   -0.1189    0.9427 C   0  0  0  0  0  0  0  0  0  0  0  0
   -0.6121    2.2499    1.1134 C   0  0  0  0  0  0  0  0  0  0  0  0
   -6.3164   -1.7073   -1.2052 C   0  0  0  0  0  0  0  0  0  0  0  0
   -5.9924   -1.2874    1.2615 C   0  0  0  0  0  0  0  0  0  0  0  0
   -7.0039   -1.5229    0.1441 C   0  0  0  0  0  0  0  0  0  0  0  0
    1.1809    0.5368    0.4382 C   0  0  0  0  0  0  0  0  0  0  0  0
    3.2662   -0.2022    0.4404 C   0  0  0  0  0  0  0  0  0  0  0  0
    2.9681    0.4912   -0.7293 C   0  0  0  0  0  0  0  0  0  0  0  0
    4.5134   -0.7726    0.6966 C   0  0  0  0  0  0  0  0  0  0  0  0
    3.9614    0.6340   -1.7129 C   0  0  0  0  0  0  0  0  0  0  0  0
    5.4902   -0.6208   -0.2930 C   0  0  0  0  0  0  0  0  0  0  0  0
    5.2213    0.0697   -1.4770 C   0  0  0  0  0  0  0  0  0  0  0  0
    6.9448   -1.8513    1.1303 C   0  0  0  0  0  0  0  0  0  0  0  0
   -3.7364   -1.2062   -0.3519 H   0  0  0  0  0  0  0  0  0  0  0  0
   -3.0538    0.8149   -1.7395 H   0  0  0  0  0  0  0  0  0  0  0  0
   -4.1199    1.7929   -0.7466 H   0  0  0  0  0  0  0  0  0  0  0  0
   -0.3012    0.3051    1.9532 H   0  0  0  0  0  0  0  0  0  0  0  0
   -0.9837    0.1700   -0.9963 H   0  0  0  0  0  0  0  0  0  0  0  0
   -1.5238   -0.8609    0.3455 H   0  0  0  0  0  0  0  0  0  0  0  0
   -2.5505    3.1518    0.7040 H   0  0  0  0  0  0  0  0  0  0  0  0
   -1.6006    2.7333   -0.7439 H   0  0  0  0  0  0  0  0  0  0  0  0
   -5.9870    0.3666   -1.6812 H   0  0  0  0  0  0  0  0  0  0  0  0
   -4.8699   -0.7415   -2.4739 H   0  0  0  0  0  0  0  0  0  0  0  0
   -5.6445    0.8118    0.9387 H   0  0  0  0  0  0  0  0  0  0  0  0
   -4.3296   -0.0324    1.7531 H   0  0  0  0  0  0  0  0  0  0  0  0
    0.1726    2.9445    0.7955 H   0  0  0  0  0  0  0  0  0  0  0  0
   -0.8352    2.4598    2.1670 H   0  0  0  0  0  0  0  0  0  0  0  0
   -5.7402   -2.6407   -1.1970 H   0  0  0  0  0  0  0  0  0  0  0  0
   -7.0717   -1.8055   -1.9931 H   0  0  0  0  0  0  0  0  0  0  0  0
   -5.3973   -2.1964    1.4131 H   0  0  0  0  0  0  0  0  0  0  0  0
   -6.5212   -1.0917    2.2012 H   0  0  0  0  0  0  0  0  0  0  0  0
   -7.6085   -2.4074    0.3740 H   0  0  0  0  0  0  0  0  0  0  0  0
   -7.6920   -0.6704    0.0893 H   0  0  0  0  0  0  0  0  0  0  0  0
    1.9619   -0.5657    2.0827 H   0  0  0  0  0  0  0  0  0  0  0  0
    4.6573   -1.2944    1.6336 H   0  0  0  0  0  0  0  0  0  0  0  0
    3.7621    1.1686   -2.6361 H   0  0  0  0  0  0  0  0  0  0  0  0
    5.9971    0.1746   -2.2319 H   0  0  0  0  0  0  0  0  0  0  0  0
    6.8501   -1.1836    1.9935 H   0  0  0  0  0  0  0  0  0  0  0  0
    6.3013   -2.7337    1.2141 H   0  0  0  0  0  0  0  0  0  0  0  0
    7.9787   -2.2117    1.1192 H   0  0  0  0  0  0  0  0  0  0  0  0
  1 21  1  0  0  0  0
  1 23  1  0  0  0  0
  2  6  1  0  0  0  0
  2  8  1  0  0  0  0
  2  9  1  0  0  0  0
  3 16  1  0  0  0  0
  3 17  1  0  0  0  0
  3 44  1  0  0  0  0
  4 16  2  0  0  0  0
  4 18  1  0  0  0  0
  5  6  1  0  0  0  0
  5 10  1  0  0  0  0
  5 11  1  0  0  0  0
  5 24  1  0  0  0  0
  6 25  1  0  0  0  0
  6 26  1  0  0  0  0
  7  8  1  0  0  0  0
  7 12  1  0  0  0  0
  7 16  1  0  0  0  0
  7 27  1  0  0  0  0
  8 28  1  0  0  0  0
  8 29  1  0  0  0  0
  9 12  1  0  0  0  0
  9 30  1  0  0  0  0
  9 31  1  0  0  0  0
 10 13  1  0  0  0  0
 10 32  1  0  0  0  0
 10 33  1  0  0  0  0
 11 14  1  0  0  0  0
 11 34  1  0  0  0  0
 11 35  1  0  0  0  0
 12 36  1  0  0  0  0
 12 37  1  0  0  0  0
 13 15  1  0  0  0  0
 13 38  1  0  0  0  0
 13 39  1  0  0  0  0
 14 15  1  0  0  0  0
 14 40  1  0  0  0  0
 14 41  1  0  0  0  0
 15 42  1  0  0  0  0
 15 43  1  0  0  0  0
 17 18  2  0  0  0  0
 17 19  1  0  0  0  0
 18 20  1  0  0  0  0
 19 21  2  0  0  0  0
 19 45  1  0  0  0  0
 20 22  2  0  0  0  0
 20 46  1  0  0  0  0
 21 22  1  0  0  0  0
 22 47  1  0  0  0  0
 23 48  1  0  0  0  0
 23 49  1  0  0  0  0
 23 50  1  0  0  0  0
M  END
> <PUBCHEM_COMPOUND_CID>
45784285

> <PUBCHEM_CONFORMER_RMSD>
0.8

> <PUBCHEM_CONFORMER_DIVERSEORDER>
1
66
40
25
42
29
36
56
19
37
53
44
14
57
45
65
62
54
51
30
60
12
5
21
52
18
38
2
26
33
3
20
48
31
50
24
32
67
58
47
16
4
63
27
11
41
22
43
8
68
35
61
39
55
7
13
46
10
6
64
9
34
17
28
23
59
15
49

> <PUBCHEM_MMFF94_PARTIAL_CHARGES>
20
1 -0.36
16 0.01
17 -0.15
18 0.23
19 -0.15
2 -0.81
20 -0.15
21 0.08
22 -0.15
23 0.28
3 0.03
4 -0.57
44 0.27
45 0.15
46 0.15
47 0.15
6 0.27
7 0.18
8 0.27
9 0.27

> <PUBCHEM_EFFECTIVE_ROTOR_COUNT>
6.2

> <PUBCHEM_PHARMACOPHORE_FEATURES>
8
1 1 acceptor
1 2 cation
1 3 donor
3 3 4 16 cation
5 2 7 8 9 12 rings
5 3 4 16 17 18 rings
6 17 18 19 20 21 22 rings
6 5 10 11 13 14 15 rings

> <PUBCHEM_HEAVY_ATOM_COUNT>
23

> <PUBCHEM_ATOM_DEF_STEREO_COUNT>
1

> <PUBCHEM_ATOM_UDEF_STEREO_COUNT>
0

> <PUBCHEM_BOND_DEF_STEREO_COUNT>
0

> <PUBCHEM_BOND_UDEF_STEREO_COUNT>
0

> <PUBCHEM_ISOTOPIC_ATOM_COUNT>
0

> <PUBCHEM_COMPONENT_COUNT>
1

> <PUBCHEM_CACTVS_TAUTO_COUNT>
2

> <PUBCHEM_CONFORMER_ID>
02BA9CDD00000001

> <PUBCHEM_MMFF94_ENERGY>
43.6723

> <PUBCHEM_FEATURE_SELFOVERLAP>
40.704

> <PUBCHEM_SHAPE_FINGERPRINT>
10 15 11383832693060295751
10299344 5 18259991479109767195
10554248 39 7853583374682919192
10670039 82 13045934677588364462
10693767 8 17387122084552526226
10763959 59 13479137891203497926
11089746 13 10881405365131086031
11963148 33 18343295968271522311
12011746 2 14056721244646466654
12035758 1 16486960792351733842
12166972 35 18040720277044356476
12236239 1 18260270716092206676
12760667 363 18413108364376332723
13403585 85 13901914401729668475
13668630 136 18186520973706786198
13673619 4 18131912672051103401
13685833 64 17989487441530560219
13782708 43 17989204811598128054
13862211 1 18343300383818596383
14123256 34 18272374200246589935
14211702 104 18340492136743323902
14251757 52 8358250450410392942
14251764 18 11671777170355639313
14251764 30 18273497896877297231
14341114 176 13758362163184889512
14528608 73 15357693115425688853
14765038 42 13830122902237531628
14849402 71 14835539480281188010
15003188 100 15430324679865309389
15142383 8 14117526402167858010
15183329 4 16587736517056331707
15238133 3 10735870707855014458
15348495 7 14979668940369791551
15537594 2 18201719557302657799
15716309 27 18060137656864682339
1577012 14 18113910321067330940
17093844 174 17417808414553331897
17780758 139 16630807716880940979
17844677 252 18059858367847549369
1813 80 18131358539876777357
18222031 100 18201437017263481289
190975 80 17346026866094218034
200 152 18187087234536641329
21054139 6 18260546689147356634
21150785 3 18261401061659206396
21267235 1 18341897393669202515
21521239 73 17530684307961648794
21623969 137 15841552968262322708
21637258 2 18413668024078863109
22122407 14 11455602244384106230
221357 26 16515680039968409732
22224240 67 14620788301770848940
22288116 15 14057011550619328803
22950370 63 18202570605167071401
23035841 295 18411704292312145395
23081809 10 18260557697122201188
23402539 116 18334861575887744093
23522609 53 18126036894713423929
23559900 14 17895759624497975169
23576562 1 15141830413125040646
23845131 108 15477086677862385689
2748736 6 7853580106207720015
2767999 5 10809337867346940543
2838139 119 13190332491923806895
29717793 49 18113621158045945158
3004659 81 17894907438387437346
312425 54 15913334598009615599
314173 85 17489870427764759377
34797466 226 16515407404414266775
351380 3 18342739632978030015
3663271 9 13039182615341743735
3737641 26 17345769481668419919
439807 62 18260268555918874619
465052 167 18201162156367315823
5104073 3 17704069581889913456
5283156 175 18260548900854689969
543368 44 12613022904550395303
59682541 35 17131823288527530442
59682541 52 15357688661718735322
59755656 520 11819273386266823169
7226269 152 9295292742270416143
7495541 125 17917708002976958512
7970288 3 18272649065163592119
8863177 126 18194405726509168667

> <PUBCHEM_SHAPE_MULTIPOLES>
452.52
19.75
1.85
1.45
1.55
0.49
0.28
-15.05
1.48
0.95
-0.41
-0.09
-0.1
-1.33

> <PUBCHEM_SHAPE_SELFOVERLAP>
966.41

> <PUBCHEM_SHAPE_VOLUME>
251.5

> <PUBCHEM_COORDINATE_TYPE>
2
5
10

$$$$
