11883039
  -OEChem-12032416123D

 67 71  0     1  0  0  0  0  0999 V2000
    0.1351    2.6329    0.0803 S   0  0  0  0  0  0  0  0  0  0  0  0
    4.2040    2.9873    1.2080 F   0  0  0  0  0  0  0  0  0  0  0  0
    5.6797   -0.7662   -1.3012 F   0  0  0  0  0  0  0  0  0  0  0  0
   -7.3659    0.4780   -0.7667 O   0  0  0  0  0  0  0  0  0  0  0  0
   -6.9911    2.3506    0.6816 O   0  0  0  0  0  0  0  0  0  0  0  0
    0.0789   -2.5620   -1.2950 O   0  0  0  0  0  0  0  0  0  0  0  0
    3.4059   -0.6759   -0.0820 O   0  0  0  0  0  0  0  0  0  0  0  0
    0.5471    0.0813   -0.0304 N   0  0  0  0  0  0  0  0  0  0  0  0
    0.2076   -3.9919    0.5292 N   0  0  0  0  0  0  0  0  0  0  0  0
    2.4975    1.4966    0.0185 N   0  0  0  0  0  0  0  0  0  0  0  0
   -3.2547   -0.4190    0.3743 C   0  0  2  0  0  0  0  0  0  0  0  0
   -3.5934    0.9452   -0.3738 C   0  0  1  0  0  0  0  0  0  0  0  0
   -5.1095    1.3775   -0.4228 C   0  0  1  0  0  0  0  0  0  0  0  0
   -1.7878   -0.8729   -0.0680 C   0  0  1  0  0  0  0  0  0  0  0  0
   -4.2596   -1.5137   -0.0694 C   0  0  0  0  0  0  0  0  0  0  0  0
   -5.9773    0.1558   -0.8378 C   0  0  1  0  0  0  0  0  0  0  0  0
   -2.6295    2.0872    0.0619 C   0  0  0  0  0  0  0  0  0  0  0  0
   -5.7171   -1.0828    0.0124 C   0  0  0  0  0  0  0  0  0  0  0  0
   -3.3104   -0.2891    1.9165 C   0  0  0  0  0  0  0  0  0  0  0  0
   -0.8207    0.2813   -0.0029 C   0  0  0  0  0  0  0  0  0  0  0  0
   -5.6379    2.0100    0.8836 C   0  0  0  0  0  0  0  0  0  0  0  0
   -5.2909    2.4668   -1.5176 C   0  0  0  0  0  0  0  0  0  0  0  0
   -1.2196    1.6018    0.0363 C   0  0  0  0  0  0  0  0  0  0  0  0
   -1.2480   -2.1008    0.6776 C   0  0  0  0  0  0  0  0  0  0  0  0
   -0.2593   -2.8802   -0.1579 C   0  0  0  0  0  0  0  0  0  0  0  0
    1.1504    1.2492    0.0165 C   0  0  0  0  0  0  0  0  0  0  0  0
    1.1586   -4.9052   -0.0369 C   0  0  0  0  0  0  0  0  0  0  0  0
    2.6325   -4.6326    0.0302 C   0  0  0  0  0  0  0  0  0  0  0  0
    2.0385   -5.7491    0.8379 C   0  0  0  0  0  0  0  0  0  0  0  0
    3.5272    0.5429   -0.0297 C   0  0  0  0  0  0  0  0  0  0  0  0
    4.9072    1.0966   -0.0463 C   0  0  0  0  0  0  0  0  0  0  0  0
    5.1791    2.3110    0.5839 C   0  0  0  0  0  0  0  0  0  0  0  0
    5.9296    0.4019   -0.6923 C   0  0  0  0  0  0  0  0  0  0  0  0
    6.4736    2.8304    0.5680 C   0  0  0  0  0  0  0  0  0  0  0  0
    7.2241    0.9214   -0.7082 C   0  0  0  0  0  0  0  0  0  0  0  0
    7.4961    2.1357   -0.0780 C   0  0  0  0  0  0  0  0  0  0  0  0
   -3.3409    0.7382   -1.4284 H   0  0  0  0  0  0  0  0  0  0  0  0
   -1.8647   -1.1193   -1.1376 H   0  0  0  0  0  0  0  0  0  0  0  0
   -4.0486   -1.8073   -1.1064 H   0  0  0  0  0  0  0  0  0  0  0  0
   -4.1405   -2.4205    0.5343 H   0  0  0  0  0  0  0  0  0  0  0  0
   -5.7653   -0.0917   -1.8865 H   0  0  0  0  0  0  0  0  0  0  0  0
   -2.7280    2.9420   -0.6155 H   0  0  0  0  0  0  0  0  0  0  0  0
   -2.8684    2.4374    1.0716 H   0  0  0  0  0  0  0  0  0  0  0  0
   -6.3544   -1.9039   -0.3404 H   0  0  0  0  0  0  0  0  0  0  0  0
   -6.0250   -0.9130    1.0500 H   0  0  0  0  0  0  0  0  0  0  0  0
   -3.0430   -1.2330    2.4040 H   0  0  0  0  0  0  0  0  0  0  0  0
   -4.3049   -0.0503    2.2877 H   0  0  0  0  0  0  0  0  0  0  0  0
   -2.6217    0.4691    2.2992 H   0  0  0  0  0  0  0  0  0  0  0  0
   -5.6018    1.3303    1.7311 H   0  0  0  0  0  0  0  0  0  0  0  0
   -5.0909    2.9209    1.1453 H   0  0  0  0  0  0  0  0  0  0  0  0
   -4.8500    2.1446   -2.4681 H   0  0  0  0  0  0  0  0  0  0  0  0
   -4.8153    3.4117   -1.2352 H   0  0  0  0  0  0  0  0  0  0  0  0
   -6.3456    2.6859   -1.7183 H   0  0  0  0  0  0  0  0  0  0  0  0
   -2.0536   -2.8014    0.9193 H   0  0  0  0  0  0  0  0  0  0  0  0
   -0.7641   -1.8148    1.6200 H   0  0  0  0  0  0  0  0  0  0  0  0
   -7.8646   -0.2964   -1.0782 H   0  0  0  0  0  0  0  0  0  0  0  0
   -7.3137    2.7567    1.5040 H   0  0  0  0  0  0  0  0  0  0  0  0
    0.7862   -5.3800   -0.9394 H   0  0  0  0  0  0  0  0  0  0  0  0
   -0.1310   -4.1848    1.4681 H   0  0  0  0  0  0  0  0  0  0  0  0
    3.2338   -4.8959   -0.8313 H   0  0  0  0  0  0  0  0  0  0  0  0
    2.9716   -3.7520    0.5622 H   0  0  0  0  0  0  0  0  0  0  0  0
    1.9810   -5.6171    1.9114 H   0  0  0  0  0  0  0  0  0  0  0  0
    2.2414   -6.7646    0.5207 H   0  0  0  0  0  0  0  0  0  0  0  0
    2.7400    2.4832    0.0400 H   0  0  0  0  0  0  0  0  0  0  0  0
    6.6849    3.7759    1.0587 H   0  0  0  0  0  0  0  0  0  0  0  0
    8.0200    0.3803   -1.2112 H   0  0  0  0  0  0  0  0  0  0  0  0
    8.5039    2.5402   -0.0903 H   0  0  0  0  0  0  0  0  0  0  0  0
  1 23  1  0  0  0  0
  1 26  1  0  0  0  0
  2 32  1  0  0  0  0
  3 33  1  0  0  0  0
  4 16  1  0  0  0  0
  4 56  1  0  0  0  0
  5 21  1  0  0  0  0
  5 57  1  0  0  0  0
  6 25  2  0  0  0  0
  7 30  2  0  0  0  0
  8 20  1  0  0  0  0
  8 26  2  0  0  0  0
  9 25  1  0  0  0  0
  9 27  1  0  0  0  0
  9 59  1  0  0  0  0
 10 26  1  0  0  0  0
 10 30  1  0  0  0  0
 10 64  1  0  0  0  0
 11 12  1  0  0  0  0
 11 14  1  0  0  0  0
 11 15  1  0  0  0  0
 11 19  1  0  0  0  0
 12 13  1  0  0  0  0
 12 17  1  0  0  0  0
 12 37  1  0  0  0  0
 13 16  1  0  0  0  0
 13 21  1  0  0  0  0
 13 22  1  0  0  0  0
 14 20  1  0  0  0  0
 14 24  1  0  0  0  0
 14 38  1  0  0  0  0
 15 18  1  0  0  0  0
 15 39  1  0  0  0  0
 15 40  1  0  0  0  0
 16 18  1  0  0  0  0
 16 41  1  0  0  0  0
 17 23  1  0  0  0  0
 17 42  1  0  0  0  0
 17 43  1  0  0  0  0
 18 44  1  0  0  0  0
 18 45  1  0  0  0  0
 19 46  1  0  0  0  0
 19 47  1  0  0  0  0
 19 48  1  0  0  0  0
 20 23  2  0  0  0  0
 21 49  1  0  0  0  0
 21 50  1  0  0  0  0
 22 51  1  0  0  0  0
 22 52  1  0  0  0  0
 22 53  1  0  0  0  0
 24 25  1  0  0  0  0
 24 54  1  0  0  0  0
 24 55  1  0  0  0  0
 27 28  1  0  0  0  0
 27 29  1  0  0  0  0
 27 58  1  0  0  0  0
 28 29  1  0  0  0  0
 28 60  1  0  0  0  0
 28 61  1  0  0  0  0
 29 62  1  0  0  0  0
 29 63  1  0  0  0  0
 30 31  1  0  0  0  0
 31 32  2  0  0  0  0
 31 33  1  0  0  0  0
 32 34  1  0  0  0  0
 33 35  2  0  0  0  0
 34 36  2  0  0  0  0
 34 65  1  0  0  0  0
 35 36  1  0  0  0  0
 35 66  1  0  0  0  0
 36 67  1  0  0  0  0
M  END
> <PUBCHEM_COMPOUND_CID>
11883039

> <PUBCHEM_CONFORMER_RMSD>
1

> <PUBCHEM_CONFORMER_DIVERSEORDER>
1
9
27
17
15
5
25
8
24
20
26
11
12
21
2
19
16
18
6
13
22
7
4
23
10
3
14

> <PUBCHEM_MMFF94_PARTIAL_CHARGES>
41
1 -0.08
10 -0.49
14 0.18
16 0.28
17 0.18
2 -0.19
20 0.05
21 0.28
23 -0.14
24 0.06
25 0.57
26 0.44
27 0.05
28 -0.2
29 -0.2
3 -0.19
30 0.54
31 0.09
32 0.19
33 0.19
34 -0.15
35 -0.15
36 -0.15
4 -0.68
5 -0.68
56 0.4
57 0.4
58 0.1
59 0.37
6 -0.57
60 0.1
61 0.1
62 0.1
63 0.1
64 0.37
65 0.15
66 0.15
67 0.15
7 -0.57
8 -0.57
9 -0.58

> <PUBCHEM_EFFECTIVE_ROTOR_COUNT>
9.8

> <PUBCHEM_PHARMACOPHORE_FEATURES>
12
1 10 donor
1 4 acceptor
1 4 donor
1 5 acceptor
1 5 donor
1 6 acceptor
1 7 acceptor
1 9 donor
5 1 8 20 23 26 rings
6 11 12 13 15 16 18 rings
6 11 12 14 17 20 23 rings
6 31 32 33 34 35 36 rings

> <PUBCHEM_HEAVY_ATOM_COUNT>
36

> <PUBCHEM_ATOM_DEF_STEREO_COUNT>
5

> <PUBCHEM_ATOM_UDEF_STEREO_COUNT>
0

> <PUBCHEM_BOND_DEF_STEREO_COUNT>
0

> <PUBCHEM_BOND_UDEF_STEREO_COUNT>
0

> <PUBCHEM_ISOTOPIC_ATOM_COUNT>
0

> <PUBCHEM_COMPONENT_COUNT>
1

> <PUBCHEM_CACTVS_TAUTO_COUNT>
6

> <PUBCHEM_CONFORMER_ID>
00B5521F00000001

> <PUBCHEM_MMFF94_ENERGY>
109.0713

> <PUBCHEM_FEATURE_SELFOVERLAP>
61.043

> <PUBCHEM_SHAPE_FINGERPRINT>
10050765 1 18122342372904337181
10675989 125 18340208484354551848
10864689 126 18410579513850585952
10940486 97 17900827355574471532
11007060 377 18199470037546465642
11014199 57 17328586632209931362
11135609 187 18410854356379693201
11135926 11 18410007702889165773
11136131 41 18260820467627725362
11578080 2 17315339346887897389
11719270 70 18409721847251496010
1361 2 18409731751150622724
14028597 1 17845673494477671203
14659021 117 17766544034791903774
14790565 3 18410293648352091137
14856354 85 16153706574008668401
15183329 4 18334008397835452961
15347591 1 18266457600103948821
15361156 5 17986124118089180116
15400415 2 18337952402490705448
15439362 3 18336543799256502915
15815584 197 18266201511745586367
15849732 13 18260828241038008901
15890870 6 18410011065869488572
15927050 60 18341046401735101623
16067689 302 18413112754239831791
16090146 7 18339379538255219408
16719943 64 18337389452510923514
17627616 140 18409444765462632042
18681886 176 18263357139446861193
20771845 165 17897437299386234973
21033648 29 18341603880490674456
21133665 82 18410858794157264678
21360443 120 18408045091544507262
22311459 1 18409729548044052621
3383291 50 18265895950249414507
3411729 13 18188206507324900627
3633792 109 18344148094203901409
4015057 19 16987718077069963824
4017518 198 18341618148619938806
4073 2 18409452517677355400
5265222 85 18264492952164349940
5385378 56 18337961082408179121
563151 97 18412260619547211557
59755656 215 18410294688018734415
6371380 46 18342454898374531368
6669772 16 18410575063283779518
99344 41 18411134723560731438
9961470 85 18411134754301632450
9981440 41 18334582377507542419

> <PUBCHEM_SHAPE_MULTIPOLES>
691.74
18.52
5.8
1.04
8.16
11.25
-0.07
-17.17
2.26
5.17
-0.93
-0.52
-0.12
0.83

> <PUBCHEM_SHAPE_SELFOVERLAP>
1478.285

> <PUBCHEM_SHAPE_VOLUME>
386.8

> <PUBCHEM_COORDINATE_TYPE>
2
5
10

$$$$
