45361144
  -OEChem-12032416253D

 65 68  0     1  0  0  0  0  0999 V2000
   -4.8790    4.2203    0.9523 Cl  0  0  0  0  0  0  0  0  0  0  0  0
   -1.0093    0.4165    1.3291 O   0  0  0  0  0  0  0  0  0  0  0  0
    5.1894   -1.6502    0.5298 O   0  0  0  0  0  0  0  0  0  0  0  0
    0.5566   -2.3555   -0.8743 N   0  0  1  0  0  0  0  0  0  0  0  0
   -2.7505   -0.9219   -0.2424 N   0  0  1  0  0  0  0  0  0  0  0  0
    0.2558   -1.4211    1.8387 N   0  0  0  0  0  0  0  0  0  0  0  0
    4.6279    0.5997    0.3962 N   0  0  0  0  0  0  0  0  0  0  0  0
    5.3601    3.2476   -0.4166 N   0  0  0  0  0  0  0  0  0  0  0  0
   -0.9220   -2.4026   -0.8386 C   0  0  1  0  0  0  0  0  0  0  0  0
   -1.6571   -1.7156    0.3495 C   0  0  1  0  0  0  0  0  0  0  0  0
   -1.5976   -1.7458   -2.0568 C   0  0  0  0  0  0  0  0  0  0  0  0
   -3.0045   -1.4668   -1.5714 C   0  0  0  0  0  0  0  0  0  0  0  0
    1.2232   -3.0619    0.2552 C   0  0  2  0  0  0  0  0  0  0  0  0
   -0.7900   -0.7867    1.1953 C   0  0  0  0  0  0  0  0  0  0  0  0
    0.5886   -2.8176    1.6383 C   0  0  0  0  0  0  0  0  0  0  0  0
    2.7081   -2.6520    0.3469 C   0  0  0  0  0  0  0  0  0  0  0  0
   -3.9543   -0.8950    0.5785 C   0  0  0  0  0  0  0  0  0  0  0  0
    1.0658   -2.8578   -2.1617 C   0  0  0  0  0  0  0  0  0  0  0  0
    2.8844   -1.1465    0.3051 C   0  0  0  0  0  0  0  0  0  0  0  0
   -4.8320    0.2829    0.2481 C   0  0  0  0  0  0  0  0  0  0  0  0
    4.3382   -0.7638    0.4224 C   0  0  0  0  0  0  0  0  0  0  0  0
    3.6346    1.6777    0.4033 C   0  0  0  0  0  0  0  0  0  0  0  0
    6.0144    1.0520    0.4999 C   0  0  0  0  0  0  0  0  0  0  0  0
   -4.4887    1.5572    0.6998 C   0  0  0  0  0  0  0  0  0  0  0  0
   -5.9882    0.0998   -0.5106 C   0  0  0  0  0  0  0  0  0  0  0  0
    3.9880    2.7596   -0.6189 C   0  0  0  0  0  0  0  0  0  0  0  0
    6.3211    2.1406   -0.5279 C   0  0  0  0  0  0  0  0  0  0  0  0
   -5.3015    2.6485    0.3929 C   0  0  0  0  0  0  0  0  0  0  0  0
   -6.8011    1.1910   -0.8173 C   0  0  0  0  0  0  0  0  0  0  0  0
    5.6773    4.3019   -1.3790 C   0  0  0  0  0  0  0  0  0  0  0  0
   -6.4578    2.4655   -0.3658 C   0  0  0  0  0  0  0  0  0  0  0  0
   -1.2322   -3.4592   -0.8424 H   0  0  0  0  0  0  0  0  0  0  0  0
   -2.0718   -2.4942    1.0036 H   0  0  0  0  0  0  0  0  0  0  0  0
   -1.0986   -0.8050   -2.3252 H   0  0  0  0  0  0  0  0  0  0  0  0
   -1.6037   -2.3990   -2.9354 H   0  0  0  0  0  0  0  0  0  0  0  0
   -3.5135   -0.7531   -2.2264 H   0  0  0  0  0  0  0  0  0  0  0  0
   -3.5835   -2.3984   -1.5385 H   0  0  0  0  0  0  0  0  0  0  0  0
    1.1857   -4.1468    0.0845 H   0  0  0  0  0  0  0  0  0  0  0  0
    1.2640   -3.1097    2.4502 H   0  0  0  0  0  0  0  0  0  0  0  0
   -0.3138   -3.4249    1.7604 H   0  0  0  0  0  0  0  0  0  0  0  0
    3.1519   -3.0616    1.2643 H   0  0  0  0  0  0  0  0  0  0  0  0
    3.2770   -3.1167   -0.4678 H   0  0  0  0  0  0  0  0  0  0  0  0
   -3.6873   -0.7960    1.6403 H   0  0  0  0  0  0  0  0  0  0  0  0
   -4.5163   -1.8366    0.5152 H   0  0  0  0  0  0  0  0  0  0  0  0
    0.8230   -0.8744    2.4791 H   0  0  0  0  0  0  0  0  0  0  0  0
    0.7743   -3.9003   -2.3327 H   0  0  0  0  0  0  0  0  0  0  0  0
    0.7057   -2.2533   -3.0000 H   0  0  0  0  0  0  0  0  0  0  0  0
    2.1551   -2.7927   -2.2309 H   0  0  0  0  0  0  0  0  0  0  0  0
    2.5104   -0.7301   -0.6355 H   0  0  0  0  0  0  0  0  0  0  0  0
    2.3876   -0.6614    1.1428 H   0  0  0  0  0  0  0  0  0  0  0  0
    2.6270    1.3107    0.1998 H   0  0  0  0  0  0  0  0  0  0  0  0
    3.6266    2.0972    1.4170 H   0  0  0  0  0  0  0  0  0  0  0  0
    6.1553    1.4332    1.5188 H   0  0  0  0  0  0  0  0  0  0  0  0
    6.7056    0.2133    0.3668 H   0  0  0  0  0  0  0  0  0  0  0  0
    3.2763    3.5863   -0.5068 H   0  0  0  0  0  0  0  0  0  0  0  0
    3.8683    2.3560   -1.6333 H   0  0  0  0  0  0  0  0  0  0  0  0
    6.2971    1.7089   -1.5375 H   0  0  0  0  0  0  0  0  0  0  0  0
    7.3389    2.5078   -0.3500 H   0  0  0  0  0  0  0  0  0  0  0  0
   -3.5884    1.6989    1.2930 H   0  0  0  0  0  0  0  0  0  0  0  0
   -6.2662   -0.8873   -0.8701 H   0  0  0  0  0  0  0  0  0  0  0  0
   -7.7012    1.0485   -1.4082 H   0  0  0  0  0  0  0  0  0  0  0  0
    4.9869    5.1452   -1.2666 H   0  0  0  0  0  0  0  0  0  0  0  0
    5.6239    3.9481   -2.4150 H   0  0  0  0  0  0  0  0  0  0  0  0
    6.6843    4.6950   -1.2002 H   0  0  0  0  0  0  0  0  0  0  0  0
   -7.1007    3.3065   -0.6125 H   0  0  0  0  0  0  0  0  0  0  0  0
  1 28  1  0  0  0  0
  2 14  2  0  0  0  0
  3 21  2  0  0  0  0
  4  9  1  0  0  0  0
  4 13  1  0  0  0  0
  4 18  1  0  0  0  0
  5 10  1  0  0  0  0
  5 12  1  0  0  0  0
  5 17  1  0  0  0  0
  6 14  1  0  0  0  0
  6 15  1  0  0  0  0
  6 45  1  0  0  0  0
  7 21  1  0  0  0  0
  7 22  1  0  0  0  0
  7 23  1  0  0  0  0
  8 26  1  0  0  0  0
  8 27  1  0  0  0  0
  8 30  1  0  0  0  0
  9 10  1  0  0  0  0
  9 11  1  0  0  0  0
  9 32  1  0  0  0  0
 10 14  1  0  0  0  0
 10 33  1  0  0  0  0
 11 12  1  0  0  0  0
 11 34  1  0  0  0  0
 11 35  1  0  0  0  0
 12 36  1  0  0  0  0
 12 37  1  0  0  0  0
 13 15  1  0  0  0  0
 13 16  1  0  0  0  0
 13 38  1  0  0  0  0
 15 39  1  0  0  0  0
 15 40  1  0  0  0  0
 16 19  1  0  0  0  0
 16 41  1  0  0  0  0
 16 42  1  0  0  0  0
 17 20  1  0  0  0  0
 17 43  1  0  0  0  0
 17 44  1  0  0  0  0
 18 46  1  0  0  0  0
 18 47  1  0  0  0  0
 18 48  1  0  0  0  0
 19 21  1  0  0  0  0
 19 49  1  0  0  0  0
 19 50  1  0  0  0  0
 20 24  2  0  0  0  0
 20 25  1  0  0  0  0
 22 26  1  0  0  0  0
 22 51  1  0  0  0  0
 22 52  1  0  0  0  0
 23 27  1  0  0  0  0
 23 53  1  0  0  0  0
 23 54  1  0  0  0  0
 24 28  1  0  0  0  0
 24 59  1  0  0  0  0
 25 29  2  0  0  0  0
 25 60  1  0  0  0  0
 26 55  1  0  0  0  0
 26 56  1  0  0  0  0
 27 57  1  0  0  0  0
 27 58  1  0  0  0  0
 28 31  2  0  0  0  0
 29 31  1  0  0  0  0
 29 61  1  0  0  0  0
 30 62  1  0  0  0  0
 30 63  1  0  0  0  0
 30 64  1  0  0  0  0
 31 65  1  0  0  0  0
M  END
> <PUBCHEM_COMPOUND_CID>
45361144

> <PUBCHEM_CONFORMER_RMSD>
1.2

> <PUBCHEM_CONFORMER_DIVERSEORDER>
1
215
148
142
183
69
191
174
34
11
131
106
54
225
83
224
159
118
228
162
211
146
216
87
84
75
102
123
57
120
165
46
134
156
204
62
232
5
53
180
51
37
116
207
109
124
145
223
56
25
66
78
85
86
184
107
198
36
82
18
175
143
55
203
94
178
169
74
122
99
136
154
205
179
139
206
58
77
222
227
16
100
177
149
231
129
115
98
226
152
218
15
210
128
93
155
2
181
81
196
32
39
166
185
138
208
88
71
103
110
194
96
95
214
117
186
217
195
68
80
67
212
33
188
19
221
230
61
163
45
153
79
170
38
114
113
28
9
167
64
193
187
176
14
164
40
27
111
141
151
20
50
229
22
135
127
35
13
30
119
219
52
137
140
42
6
108
200
21
144
92
213
130
209
43
24
173
121
112
90
7
133
160
161
201
192
60
89
105
125
150
3
147
59
73
29
31
168
197
8
10
49
23
101
104
171
202
63
17
220
72
26
172
70
132
190
91
48
44
4
189
41
65
182
199
47
158
76
126
157
12
97

> <PUBCHEM_MMFF94_PARTIAL_CHARGES>
34
1 -0.18
10 0.33
12 0.27
13 0.27
14 0.57
15 0.3
17 0.41
18 0.27
19 0.06
2 -0.57
20 -0.14
21 0.57
22 0.3
23 0.3
24 -0.15
25 -0.15
26 0.27
27 0.27
28 0.18
29 -0.15
3 -0.57
30 0.27
31 -0.15
4 -0.81
45 0.37
5 -0.81
59 0.15
6 -0.73
60 0.15
61 0.15
65 0.15
7 -0.66
8 -0.81
9 0.27

> <PUBCHEM_EFFECTIVE_ROTOR_COUNT>
8.6

> <PUBCHEM_PHARMACOPHORE_FEATURES>
10
1 2 acceptor
1 3 acceptor
1 4 cation
1 5 cation
1 6 donor
1 8 cation
5 5 9 10 11 12 rings
6 20 24 25 28 29 31 rings
6 7 8 22 23 26 27 rings
7 4 6 9 10 13 14 15 rings

> <PUBCHEM_HEAVY_ATOM_COUNT>
31

> <PUBCHEM_ATOM_DEF_STEREO_COUNT>
3

> <PUBCHEM_ATOM_UDEF_STEREO_COUNT>
0

> <PUBCHEM_BOND_DEF_STEREO_COUNT>
0

> <PUBCHEM_BOND_UDEF_STEREO_COUNT>
0

> <PUBCHEM_ISOTOPIC_ATOM_COUNT>
0

> <PUBCHEM_COMPONENT_COUNT>
1

> <PUBCHEM_CACTVS_TAUTO_COUNT>
3

> <PUBCHEM_CONFORMER_ID>
02B427F800000001

> <PUBCHEM_MMFF94_ENERGY>
79.589

> <PUBCHEM_FEATURE_SELFOVERLAP>
50.783

> <PUBCHEM_SHAPE_FINGERPRINT>
100830 2 18200043841210194793
10673678 19 18343019973798700199
10763959 59 18269562637134460886
11101153 10 18339637846779455405
11411753 29 18125187999059654211
11796584 16 10665235817703014171
12422481 6 17749391442723506021
12633257 1 16153712084636325326
12788726 201 17704081680791557216
14251764 30 10087645883620411640
14251764 75 18335983163921650492
14739800 52 18042682802441851715
14790565 3 18410856551202985425
15064981 113 17560257911433460156
15142526 21 18187364328937023347
15510800 12 12103558719098179860
15575132 122 18271812375036367620
15840311 113 18335140843820561549
15961568 22 18339358544702801213
16112460 7 18408321099191893732
20058555 10 18408885122897551925
20567600 247 9150875188338328271
20691028 202 18189334753027678820
20715895 44 18342736278376677626
21033648 29 17022907869486605378
21298829 104 18411132576536461224
22122407 14 18335426737717161795
23522609 53 17845666833437270521
23559900 14 17129012764681799663
245318 6 18261689137267921885
27425 322 18335136492507909910
2748736 6 18336819879280023304
2838139 119 18411417280610919655
3388396 114 16611945912375919380
3411729 13 18409729526220303071
3472631 163 18411981351535247590
3493558 16 18338243665460494081
397830 11 18114757005287508475
4058900 60 18335425668476455538
550186 72 18268710700796826563
57724786 102 18187641453702173518
6034566 193 18271259312287592051
6036956 94 17542230507061924652
7288768 16 17895473760085573010

> <PUBCHEM_SHAPE_MULTIPOLES>
603.19
17.36
5.29
1.54
1.86
3.91
0.39
21.99
1.76
-3.35
0.89
0.11
-0.82
-2.8

> <PUBCHEM_SHAPE_SELFOVERLAP>
1252.848

> <PUBCHEM_SHAPE_VOLUME>
343.6

> <PUBCHEM_COORDINATE_TYPE>
2
5
10

$$$$
