11912243
  -OEChem-12032416133D

 51 52  0     1  0  0  0  0  0999 V2000
    3.0221   -0.5270    0.4387 S   0  0  0  0  0  0  0  0  0  0  0  0
   -1.8147    0.5931    1.3724 O   0  0  0  0  0  0  0  0  0  0  0  0
    0.1009   -3.0773   -0.5620 O   0  0  0  0  0  0  0  0  0  0  0  0
   -3.8564    1.9805   -1.4129 O   0  0  0  0  0  0  0  0  0  0  0  0
    2.7797    2.5664    1.6753 O   0  0  0  0  0  0  0  0  0  0  0  0
    6.3577   -1.1184   -1.4693 O   0  0  0  0  0  0  0  0  0  0  0  0
    5.9239   -0.9612    0.7560 O   0  0  0  0  0  0  0  0  0  0  0  0
   -1.8642    2.6157   -0.3912 N   0  0  0  0  0  0  0  0  0  0  0  0
    0.9391    2.1798    0.3103 N   0  0  0  0  0  0  0  0  0  0  0  0
   -1.5875   -0.9369   -0.3673 N   0  0  0  0  0  0  0  0  0  0  0  0
   -1.5909   -4.5321   -0.0734 N   0  0  0  0  0  0  0  0  0  0  0  0
   -1.1741    1.3866   -0.7891 C   0  0  1  0  0  0  0  0  0  0  0  0
    0.3437    1.5431   -0.8716 C   0  0  0  0  0  0  0  0  0  0  0  0
   -1.0751    3.6252    0.3240 C   0  0  0  0  0  0  0  0  0  0  0  0
    0.0635    3.0163    1.1290 C   0  0  0  0  0  0  0  0  0  0  0  0
   -1.9112   -2.1279    0.3743 C   0  0  1  0  0  0  0  0  0  0  0  0
   -1.5674    0.3260    0.1993 C   0  0  0  0  0  0  0  0  0  0  0  0
   -3.4084   -2.4011    0.3350 C   0  0  0  0  0  0  0  0  0  0  0  0
   -3.6974   -3.7504    0.9724 C   0  0  0  0  0  0  0  0  0  0  0  0
   -2.9870   -4.8339    0.1833 C   0  0  0  0  0  0  0  0  0  0  0  0
   -1.0508   -3.2653   -0.1651 C   0  0  0  0  0  0  0  0  0  0  0  0
   -3.1833    2.8211   -0.8113 C   0  0  0  0  0  0  0  0  0  0  0  0
    2.2762    2.0316    0.6845 C   0  0  0  0  0  0  0  0  0  0  0  0
    3.1251    1.1514   -0.1997 C   0  0  0  0  0  0  0  0  0  0  0  0
   -3.7899    4.1635   -0.4840 C   0  0  0  0  0  0  0  0  0  0  0  0
    4.0948   -1.3499   -0.7647 C   0  0  0  0  0  0  0  0  0  0  0  0
    5.5312   -1.1189   -0.3929 C   0  0  0  0  0  0  0  0  0  0  0  0
   -1.5499    1.0964   -1.7787 H   0  0  0  0  0  0  0  0  0  0  0  0
    0.5973    2.1912   -1.7198 H   0  0  0  0  0  0  0  0  0  0  0  0
    0.7974    0.5677   -1.0586 H   0  0  0  0  0  0  0  0  0  0  0  0
   -0.6789    4.3093   -0.4361 H   0  0  0  0  0  0  0  0  0  0  0  0
   -1.7201    4.2060    0.9892 H   0  0  0  0  0  0  0  0  0  0  0  0
   -0.3089    2.3992    1.9521 H   0  0  0  0  0  0  0  0  0  0  0  0
    0.6541    3.8179    1.5873 H   0  0  0  0  0  0  0  0  0  0  0  0
   -1.6051   -1.9805    1.4184 H   0  0  0  0  0  0  0  0  0  0  0  0
   -3.9514   -1.6117    0.8685 H   0  0  0  0  0  0  0  0  0  0  0  0
   -3.7753   -2.3922   -0.6997 H   0  0  0  0  0  0  0  0  0  0  0  0
   -1.3748   -1.0377   -1.3560 H   0  0  0  0  0  0  0  0  0  0  0  0
   -4.7753   -3.9438    0.9891 H   0  0  0  0  0  0  0  0  0  0  0  0
   -3.3486   -3.7520    2.0123 H   0  0  0  0  0  0  0  0  0  0  0  0
   -3.0294   -5.7912    0.7121 H   0  0  0  0  0  0  0  0  0  0  0  0
   -3.4635   -4.9694   -0.7940 H   0  0  0  0  0  0  0  0  0  0  0  0
   -1.0042   -5.3035   -0.3761 H   0  0  0  0  0  0  0  0  0  0  0  0
    2.8383    1.2168   -1.2514 H   0  0  0  0  0  0  0  0  0  0  0  0
    4.1587    1.5079   -0.1283 H   0  0  0  0  0  0  0  0  0  0  0  0
   -4.7502    4.2627   -0.9993 H   0  0  0  0  0  0  0  0  0  0  0  0
   -3.9654    4.2403    0.5921 H   0  0  0  0  0  0  0  0  0  0  0  0
   -3.1403    4.9746   -0.8227 H   0  0  0  0  0  0  0  0  0  0  0  0
    3.9041   -2.4266   -0.7471 H   0  0  0  0  0  0  0  0  0  0  0  0
    3.8873   -0.9705   -1.7693 H   0  0  0  0  0  0  0  0  0  0  0  0
    7.2932   -0.9733   -1.2123 H   0  0  0  0  0  0  0  0  0  0  0  0
  1 24  1  0  0  0  0
  1 26  1  0  0  0  0
  2 17  2  0  0  0  0
  3 21  2  0  0  0  0
  4 22  2  0  0  0  0
  5 23  2  0  0  0  0
  6 27  1  0  0  0  0
  6 51  1  0  0  0  0
  7 27  2  0  0  0  0
  8 12  1  0  0  0  0
  8 14  1  0  0  0  0
  8 22  1  0  0  0  0
  9 13  1  0  0  0  0
  9 15  1  0  0  0  0
  9 23  1  0  0  0  0
 10 16  1  0  0  0  0
 10 17  1  0  0  0  0
 10 38  1  0  0  0  0
 11 20  1  0  0  0  0
 11 21  1  0  0  0  0
 11 43  1  0  0  0  0
 12 13  1  0  0  0  0
 12 17  1  0  0  0  0
 12 28  1  0  0  0  0
 13 29  1  0  0  0  0
 13 30  1  0  0  0  0
 14 15  1  0  0  0  0
 14 31  1  0  0  0  0
 14 32  1  0  0  0  0
 15 33  1  0  0  0  0
 15 34  1  0  0  0  0
 16 18  1  0  0  0  0
 16 21  1  0  0  0  0
 16 35  1  0  0  0  0
 18 19  1  0  0  0  0
 18 36  1  0  0  0  0
 18 37  1  0  0  0  0
 19 20  1  0  0  0  0
 19 39  1  0  0  0  0
 19 40  1  0  0  0  0
 20 41  1  0  0  0  0
 20 42  1  0  0  0  0
 22 25  1  0  0  0  0
 23 24  1  0  0  0  0
 24 44  1  0  0  0  0
 24 45  1  0  0  0  0
 25 46  1  0  0  0  0
 25 47  1  0  0  0  0
 25 48  1  0  0  0  0
 26 27  1  0  0  0  0
 26 49  1  0  0  0  0
 26 50  1  0  0  0  0
M  END
> <PUBCHEM_COMPOUND_CID>
11912243

> <PUBCHEM_CONFORMER_RMSD>
1

> <PUBCHEM_CONFORMER_DIVERSEORDER>
7
62
113
111
122
82
87
65
57
74
12
123
44
72
15
112
92
14
115
90
95
51
8
24
59
35
3
116
124
77
20
4
99
58
114
28
126
23
117
30
47
103
46
104
49
102
127
89
18
56
107
54
48
45
83
125
2
84
121
93
22
10
86
97
36
41
80
5
106
70
13
11
108
78
53
81
33
118
34
98
105
37
67
79
40
25
101
109
16
85
29
50
119
64
39
96
88
42
66
17
94
76
91
1
31
6
9
21
61
68
55
73
27
38
43
63
69
75
32
52
71
120
19
60
100
110
26

> <PUBCHEM_MMFF94_PARTIAL_CHARGES>
28
1 -0.46
10 -0.73
11 -0.73
12 0.36
13 0.3
14 0.3
15 0.3
16 0.36
17 0.57
2 -0.57
20 0.3
21 0.57
22 0.57
23 0.57
24 0.29
25 0.06
26 0.29
27 0.66
3 -0.57
38 0.37
4 -0.57
43 0.37
5 -0.57
51 0.5
6 -0.65
7 -0.57
8 -0.66
9 -0.66

> <PUBCHEM_EFFECTIVE_ROTOR_COUNT>
11.2

> <PUBCHEM_PHARMACOPHORE_FEATURES>
11
1 10 donor
1 11 donor
1 2 acceptor
1 3 acceptor
1 4 acceptor
1 5 acceptor
1 6 acceptor
1 7 acceptor
3 6 7 27 anion
6 11 16 18 19 20 21 rings
6 8 9 12 13 14 15 rings

> <PUBCHEM_HEAVY_ATOM_COUNT>
27

> <PUBCHEM_ATOM_DEF_STEREO_COUNT>
2

> <PUBCHEM_ATOM_UDEF_STEREO_COUNT>
0

> <PUBCHEM_BOND_DEF_STEREO_COUNT>
0

> <PUBCHEM_BOND_UDEF_STEREO_COUNT>
0

> <PUBCHEM_ISOTOPIC_ATOM_COUNT>
0

> <PUBCHEM_COMPONENT_COUNT>
1

> <PUBCHEM_CACTVS_TAUTO_COUNT>
4

> <PUBCHEM_CONFORMER_ID>
00B5C43300000007

> <PUBCHEM_MMFF94_ENERGY>
59.1204

> <PUBCHEM_FEATURE_SELFOVERLAP>
55.882

> <PUBCHEM_SHAPE_FINGERPRINT>
10940486 97 18260556602164329172
11135609 187 18050001086932518080
12107183 9 18125460832646406267
12293681 25 18052232262492024797
12553582 1 17688584283398960501
12788726 201 17970902495349963329
13140716 1 18341901817490876785
13785724 45 18049738600338565003
138480 1 16392398062965772926
14251757 5 18411145701824454038
14866123 147 18410293593039671523
15422964 175 17906163310804145925
15664445 248 17400660696656110197
15927050 60 18053096221492542621
16719943 64 18266454296266542642
19319366 153 17315351428214241210
19930381 70 17257085970316684067
20739085 24 17113250599318360881
20775530 9 18267867362219516754
22849339 104 18266757804578352758
23466295 7 18340781372730511778
3383291 50 18339918208383489251
340366 18 18114187389260182580
3737641 26 18123196963715499456
4058900 60 17833838166089831420
4409770 3 18335423439652120639
5265222 85 18336554794104613268
6443956 14 17470438999263721317
7097593 13 17042608085799155471
9709674 26 18341316890443554876
9961470 85 18051116009557093378
9981440 41 17975699389603446041

> <PUBCHEM_SHAPE_MULTIPOLES>
504.36
9.62
7.12
1.14
16.44
2.76
-0.08
5.65
1.51
-10.05
-0.25
0.35
-0.46
2.54

> <PUBCHEM_SHAPE_SELFOVERLAP>
1016.302

> <PUBCHEM_SHAPE_VOLUME>
294.3

> <PUBCHEM_COORDINATE_TYPE>
2
5
10

$$$$
