75536908
  -OEChem-12032416323D

 42 44  0     1  0  0  0  0  0999 V2000
    0.2438   -3.3710    0.5251 O   0  0  0  0  0  0  0  0  0  0  0  0
   -3.4525   -0.6805   -1.2644 O   0  0  0  0  0  0  0  0  0  0  0  0
    2.0355   -0.3008    1.1751 O   0  0  0  0  0  0  0  0  0  0  0  0
   -1.2206   -0.8167   -0.6023 N   0  0  0  0  0  0  0  0  0  0  0  0
    2.9860    0.2082   -0.8844 N   0  0  0  0  0  0  0  0  0  0  0  0
    4.8934    1.7962    0.4220 N   0  0  0  0  0  0  0  0  0  0  0  0
   -2.5697    1.1928   -0.1308 C   0  0  0  0  0  0  0  0  0  0  0  0
   -3.0465    1.1113    1.3237 C   0  0  0  0  0  0  0  0  0  0  0  0
   -3.6150    2.0224   -0.8779 C   0  0  0  0  0  0  0  0  0  0  0  0
   -4.2985    1.9787    1.4007 C   0  0  0  0  0  0  0  0  0  0  0  0
   -4.8617    1.9433   -0.0085 C   0  0  0  0  0  0  0  0  0  0  0  0
   -2.4645   -0.1805   -0.7208 C   0  0  0  0  0  0  0  0  0  0  0  0
   -0.0660   -0.1803    0.0392 C   0  0  0  0  0  0  0  0  0  0  0  0
   -1.0622   -2.1648   -1.1538 C   0  0  0  0  0  0  0  0  0  0  0  0
    1.1045   -1.0871    0.4292 C   0  0  2  0  0  0  0  0  0  0  0  0
   -1.0483   -3.2154   -0.0514 C   0  0  0  0  0  0  0  0  0  0  0  0
    0.6834   -2.2642    1.3045 C   0  0  0  0  0  0  0  0  0  0  0  0
    2.9955    0.3550    0.4553 C   0  0  0  0  0  0  0  0  0  0  0  0
    3.9323    1.1349    1.0970 C   0  0  0  0  0  0  0  0  0  0  0  0
    3.9471    0.8694   -1.5595 C   0  0  0  0  0  0  0  0  0  0  0  0
    4.8840    1.6493   -0.9179 C   0  0  0  0  0  0  0  0  0  0  0  0
   -1.6219    1.7314   -0.2116 H   0  0  0  0  0  0  0  0  0  0  0  0
   -3.2847    0.0820    1.6181 H   0  0  0  0  0  0  0  0  0  0  0  0
   -2.2835    1.4769    2.0193 H   0  0  0  0  0  0  0  0  0  0  0  0
   -3.2812    3.0671   -0.9261 H   0  0  0  0  0  0  0  0  0  0  0  0
   -3.8083    1.6997   -1.9058 H   0  0  0  0  0  0  0  0  0  0  0  0
   -4.0247    3.0057    1.6706 H   0  0  0  0  0  0  0  0  0  0  0  0
   -5.0114    1.6125    2.1450 H   0  0  0  0  0  0  0  0  0  0  0  0
   -5.3951    1.0020   -0.1834 H   0  0  0  0  0  0  0  0  0  0  0  0
   -5.5528    2.7692   -0.1997 H   0  0  0  0  0  0  0  0  0  0  0  0
   -0.4042    0.3412    0.9413 H   0  0  0  0  0  0  0  0  0  0  0  0
    0.2837    0.6007   -0.6469 H   0  0  0  0  0  0  0  0  0  0  0  0
   -0.1536   -2.1897   -1.7643 H   0  0  0  0  0  0  0  0  0  0  0  0
   -1.9041   -2.3764   -1.8216 H   0  0  0  0  0  0  0  0  0  0  0  0
    1.5675   -1.5201   -0.4666 H   0  0  0  0  0  0  0  0  0  0  0  0
   -1.7887   -3.0109    0.7308 H   0  0  0  0  0  0  0  0  0  0  0  0
   -1.2991   -4.1864   -0.4917 H   0  0  0  0  0  0  0  0  0  0  0  0
    1.5478   -2.6160    1.8798 H   0  0  0  0  0  0  0  0  0  0  0  0
   -0.0778   -1.9818    2.0423 H   0  0  0  0  0  0  0  0  0  0  0  0
    3.9435    1.2556    2.1736 H   0  0  0  0  0  0  0  0  0  0  0  0
    3.9399    0.7518   -2.6360 H   0  0  0  0  0  0  0  0  0  0  0  0
    5.6559    2.1803   -1.4611 H   0  0  0  0  0  0  0  0  0  0  0  0
  1 16  1  0  0  0  0
  1 17  1  0  0  0  0
  2 12  2  0  0  0  0
  3 15  1  0  0  0  0
  3 18  1  0  0  0  0
  4 12  1  0  0  0  0
  4 13  1  0  0  0  0
  4 14  1  0  0  0  0
  5 18  2  0  0  0  0
  5 20  1  0  0  0  0
  6 19  2  0  0  0  0
  6 21  1  0  0  0  0
  7  8  1  0  0  0  0
  7  9  1  0  0  0  0
  7 12  1  0  0  0  0
  7 22  1  0  0  0  0
  8 10  1  0  0  0  0
  8 23  1  0  0  0  0
  8 24  1  0  0  0  0
  9 11  1  0  0  0  0
  9 25  1  0  0  0  0
  9 26  1  0  0  0  0
 10 11  1  0  0  0  0
 10 27  1  0  0  0  0
 10 28  1  0  0  0  0
 11 29  1  0  0  0  0
 11 30  1  0  0  0  0
 13 15  1  0  0  0  0
 13 31  1  0  0  0  0
 13 32  1  0  0  0  0
 14 16  1  0  0  0  0
 14 33  1  0  0  0  0
 14 34  1  0  0  0  0
 15 17  1  0  0  0  0
 15 35  1  0  0  0  0
 16 36  1  0  0  0  0
 16 37  1  0  0  0  0
 17 38  1  0  0  0  0
 17 39  1  0  0  0  0
 18 19  1  0  0  0  0
 19 40  1  0  0  0  0
 20 21  2  0  0  0  0
 20 41  1  0  0  0  0
 21 42  1  0  0  0  0
M  END
> <PUBCHEM_COMPOUND_CID>
75536908

> <PUBCHEM_CONFORMER_RMSD>
0.8

> <PUBCHEM_CONFORMER_DIVERSEORDER>
1
208
182
200
152
87
156
58
51
158
184
88
11
8
41
137
198
16
114
73
100
213
201
226
146
95
231
103
163
34
154
191
169
110
225
3
150
167
209
212
23
124
65
185
91
195
125
139
37
204
89
202
157
133
178
14
218
162
227
235
92
43
173
138
46
228
29
20
104
196
71
199
81
166
203
86
70
130
98
42
128
54
145
206
15
44
171
50
197
94
189
215
6
127
60
220
79
131
132
107
234
116
55
45
126
17
5
164
22
83
219
136
117
26
63
115
217
142
207
28
211
4
85
210
21
31
144
172
109
165
216
7
194
214
35
183
111
159
48
90
12
53
122
25
160
30
105
229
129
24
181
135
230
224
176
2
61
223
13
40
69
106
179
161
112
72
80
93
118
121
19
180
57
66
49
190
68
187
174
113
149
120
47
62
9
52
32
168
99
10
101
143
76
67
39
108
96
134
186
155
78
102
27
188
221
192
151
153
18
222
97
148
82
36
77
233
141
205
140
193
33
84
177
59
75
119
147
56
170
74
38
232
236
123
64
175

> <PUBCHEM_MMFF94_PARTIAL_CHARGES>
20
1 -0.56
12 0.57
13 0.3
14 0.3
15 0.28
16 0.28
17 0.28
18 0.39
19 0.16
2 -0.57
20 0.16
21 0.16
3 -0.36
4 -0.66
40 0.15
41 0.15
42 0.15
5 -0.62
6 -0.62
7 0.06

> <PUBCHEM_EFFECTIVE_ROTOR_COUNT>
6.4

> <PUBCHEM_PHARMACOPHORE_FEATURES>
6
1 1 acceptor
1 2 acceptor
1 6 acceptor
5 7 8 9 10 11 rings
6 5 6 18 19 20 21 rings
7 1 4 13 14 15 16 17 rings

> <PUBCHEM_HEAVY_ATOM_COUNT>
21

> <PUBCHEM_ATOM_DEF_STEREO_COUNT>
1

> <PUBCHEM_ATOM_UDEF_STEREO_COUNT>
0

> <PUBCHEM_BOND_DEF_STEREO_COUNT>
0

> <PUBCHEM_BOND_UDEF_STEREO_COUNT>
0

> <PUBCHEM_ISOTOPIC_ATOM_COUNT>
0

> <PUBCHEM_COMPONENT_COUNT>
1

> <PUBCHEM_CACTVS_TAUTO_COUNT>
1

> <PUBCHEM_CONFORMER_ID>
04809A0C00000001

> <PUBCHEM_MMFF94_ENERGY>
62.6411

> <PUBCHEM_FEATURE_SELFOVERLAP>
30.448

> <PUBCHEM_SHAPE_FINGERPRINT>
10498660 4 18272082777777884289
10681291 71 18410581664611258569
11370993 144 13913141488758366956
11640471 11 18113887299852453610
12173636 292 18337664321300386494
12390115 104 18341060678484980761
12788726 201 17829620804610526998
13583140 156 15574985208792650284
13828863 39 16372441240017113276
14123255 52 18409728439245664281
1420 369 8142078762774745649
14251757 17 17060623316967719052
14251764 75 18342184310744978961
14341114 328 16515979115368261864
14468879 13 17845942930323362702
15342168 16 18335419020114767029
15534591 1 18411698807106340231
1741750 31 18412260662027509634
1813 80 17336187057233365287
18222031 100 8502364529703905768
18785283 64 18116153264347488322
19784866 34 18411698759861602777
204376 136 18408605838190066809
20567600 9 18052832342258735405
20626108 58 8646475315517150877
20671657 53 10951757569558387851
21250096 35 10591757662625207548
21756936 100 17314528096195748076
22182937 141 18340209712040212184
23419403 2 17478388180238209575
23557571 272 17909543205659137394
23559900 14 16445614623809178919
2637199 183 18130794408263342153
283562 15 18192705872352257723
3472631 163 18341049704828410636
38570 142 17986412021872263969
394222 165 18264202513474770667
458136 41 18337115540401694531
469060 322 18116726299215982107
474 4 18335419015508407347
5048184 11 18410009927133631085
5486654 2 18337666542510790831
59755656 520 18408326592354221110
6034566 193 18113623425509460301
633830 44 18342175522898116422
6438754 60 11887671732656163909
7808743 9 18335423534194369508
9999458 23 18118971290879158135

> <PUBCHEM_SHAPE_MULTIPOLES>
399.62
9.99
3.28
1.43
3.57
2.84
-0.03
-10.9
0.54
-1.1
-0.28
0.09
-0.14
-1.09

> <PUBCHEM_SHAPE_SELFOVERLAP>
837.302

> <PUBCHEM_SHAPE_VOLUME>
223.4

> <PUBCHEM_COORDINATE_TYPE>
2
5
10

$$$$
