7051380
  -OEChem-12032416363D

 61 65  0     1  0  0  0  0  0999 V2000
    1.9460    2.2332    1.1153 S   0  0  0  0  0  0  0  0  0  0  0  0
   -1.0600    2.6569    1.8538 O   0  0  0  0  0  0  0  0  0  0  0  0
   -2.5658   -2.3707    1.6309 O   0  0  0  0  0  0  0  0  0  0  0  0
    2.3367    3.1111    2.2023 O   0  0  0  0  0  0  0  0  0  0  0  0
    1.3226    0.9539    1.3972 O   0  0  0  0  0  0  0  0  0  0  0  0
    3.4697   -4.2633    0.1809 O   0  0  0  0  0  0  0  0  0  0  0  0
   -3.6506   -1.2019   -0.0459 N   0  0  0  0  0  0  0  0  0  0  0  0
   -2.4837    1.7578    0.2246 N   0  0  0  0  0  0  0  0  0  0  0  0
   -1.7681   -2.5363   -0.5399 N   0  0  0  0  0  0  0  0  0  0  0  0
    1.0063    3.0910   -0.0009 N   0  0  0  0  0  0  0  0  0  0  0  0
   -4.8196    0.8597    0.7530 C   0  0  1  0  0  0  0  0  0  0  0  0
   -3.9687    0.7580   -1.5505 C   0  0  2  0  0  0  0  0  0  0  0  0
   -5.1389    1.2276   -0.6903 C   0  0  0  0  0  0  0  0  0  0  0  0
   -4.6403   -0.6614    0.8906 C   0  0  0  0  0  0  0  0  0  0  0  0
   -3.5728    1.6306    1.2008 C   0  0  0  0  0  0  0  0  0  0  0  0
   -3.8241   -0.7750   -1.4463 C   0  0  0  0  0  0  0  0  0  0  0  0
   -2.6726    1.4230   -1.1230 C   0  0  0  0  0  0  0  0  0  0  0  0
   -1.7021    1.6564   -2.0255 C   0  0  0  0  0  0  0  0  0  0  0  0
   -1.2797    2.3279    0.6888 C   0  0  0  0  0  0  0  0  0  0  0  0
   -2.6405   -2.0621    0.4387 C   0  0  0  0  0  0  0  0  0  0  0  0
   -0.2389    2.5377   -0.3486 C   0  0  0  0  0  0  0  0  0  0  0  0
   -0.4448    2.2309   -1.6299 C   0  0  0  0  0  0  0  0  0  0  0  0
   -0.4338   -2.9759   -0.3569 C   0  0  0  0  0  0  0  0  0  0  0  0
    3.3933    1.9138    0.1501 C   0  0  0  0  0  0  0  0  0  0  0  0
    0.2720   -3.5122   -1.4302 C   0  0  0  0  0  0  0  0  0  0  0  0
    0.1635   -2.8700    0.8963 C   0  0  0  0  0  0  0  0  0  0  0  0
    1.5853   -3.9462   -1.2491 C   0  0  0  0  0  0  0  0  0  0  0  0
    1.4768   -3.3039    1.0775 C   0  0  0  0  0  0  0  0  0  0  0  0
    4.4319    2.8279    0.1683 C   0  0  0  0  0  0  0  0  0  0  0  0
    3.4588    0.7560   -0.6049 C   0  0  0  0  0  0  0  0  0  0  0  0
    2.1877   -3.8420    0.0047 C   0  0  0  0  0  0  0  0  0  0  0  0
    5.5730    2.5762   -0.5934 C   0  0  0  0  0  0  0  0  0  0  0  0
    4.6000    0.5045   -1.3665 C   0  0  0  0  0  0  0  0  0  0  0  0
    5.6571    1.4146   -1.3606 C   0  0  0  0  0  0  0  0  0  0  0  0
    4.0240   -4.1276    1.4887 C   0  0  0  0  0  0  0  0  0  0  0  0
   -5.6555    1.1537    1.3999 H   0  0  0  0  0  0  0  0  0  0  0  0
   -4.1885    1.0140   -2.5953 H   0  0  0  0  0  0  0  0  0  0  0  0
   -6.0698    0.7452   -1.0124 H   0  0  0  0  0  0  0  0  0  0  0  0
   -5.2863    2.3102   -0.7900 H   0  0  0  0  0  0  0  0  0  0  0  0
   -4.3828   -0.9153    1.9239 H   0  0  0  0  0  0  0  0  0  0  0  0
   -5.5882   -1.1664    0.6666 H   0  0  0  0  0  0  0  0  0  0  0  0
   -3.8668    2.6594    1.4501 H   0  0  0  0  0  0  0  0  0  0  0  0
   -3.1657    1.2017    2.1252 H   0  0  0  0  0  0  0  0  0  0  0  0
   -4.7330   -1.2655   -1.8154 H   0  0  0  0  0  0  0  0  0  0  0  0
   -3.0024   -1.0973   -2.0875 H   0  0  0  0  0  0  0  0  0  0  0  0
   -1.8235    1.3935   -3.0712 H   0  0  0  0  0  0  0  0  0  0  0  0
    0.3049    2.3814   -2.3993 H   0  0  0  0  0  0  0  0  0  0  0  0
   -2.1117   -2.6201   -1.4903 H   0  0  0  0  0  0  0  0  0  0  0  0
    1.5267    3.4464   -0.8156 H   0  0  0  0  0  0  0  0  0  0  0  0
   -0.1861   -3.5984   -2.4120 H   0  0  0  0  0  0  0  0  0  0  0  0
   -0.3226   -2.4278    1.7570 H   0  0  0  0  0  0  0  0  0  0  0  0
    2.1344   -4.3638   -2.0886 H   0  0  0  0  0  0  0  0  0  0  0  0
    1.8874   -3.1855    2.0745 H   0  0  0  0  0  0  0  0  0  0  0  0
    4.3820    3.7413    0.7528 H   0  0  0  0  0  0  0  0  0  0  0  0
    2.6437    0.0392   -0.6282 H   0  0  0  0  0  0  0  0  0  0  0  0
    6.3954    3.2857   -0.5906 H   0  0  0  0  0  0  0  0  0  0  0  0
    4.6648   -0.3994   -1.9653 H   0  0  0  0  0  0  0  0  0  0  0  0
    6.5453    1.2190   -1.9543 H   0  0  0  0  0  0  0  0  0  0  0  0
    5.0476   -4.5143    1.4475 H   0  0  0  0  0  0  0  0  0  0  0  0
    4.0914   -3.0766    1.7896 H   0  0  0  0  0  0  0  0  0  0  0  0
    3.4818   -4.7354    2.2210 H   0  0  0  0  0  0  0  0  0  0  0  0
  1  4  2  0  0  0  0
  1  5  2  0  0  0  0
  1 10  1  0  0  0  0
  1 24  1  0  0  0  0
  2 19  2  0  0  0  0
  3 20  2  0  0  0  0
  6 31  1  0  0  0  0
  6 35  1  0  0  0  0
  7 14  1  0  0  0  0
  7 16  1  0  0  0  0
  7 20  1  0  0  0  0
  8 15  1  0  0  0  0
  8 17  1  0  0  0  0
  8 19  1  0  0  0  0
  9 20  1  0  0  0  0
  9 23  1  0  0  0  0
  9 48  1  0  0  0  0
 10 21  1  0  0  0  0
 10 49  1  0  0  0  0
 11 13  1  0  0  0  0
 11 14  1  0  0  0  0
 11 15  1  0  0  0  0
 11 36  1  0  0  0  0
 12 13  1  0  0  0  0
 12 16  1  0  0  0  0
 12 17  1  0  0  0  0
 12 37  1  0  0  0  0
 13 38  1  0  0  0  0
 13 39  1  0  0  0  0
 14 40  1  0  0  0  0
 14 41  1  0  0  0  0
 15 42  1  0  0  0  0
 15 43  1  0  0  0  0
 16 44  1  0  0  0  0
 16 45  1  0  0  0  0
 17 18  2  0  0  0  0
 18 22  1  0  0  0  0
 18 46  1  0  0  0  0
 19 21  1  0  0  0  0
 21 22  2  0  0  0  0
 22 47  1  0  0  0  0
 23 25  2  0  0  0  0
 23 26  1  0  0  0  0
 24 29  2  0  0  0  0
 24 30  1  0  0  0  0
 25 27  1  0  0  0  0
 25 50  1  0  0  0  0
 26 28  2  0  0  0  0
 26 51  1  0  0  0  0
 27 31  2  0  0  0  0
 27 52  1  0  0  0  0
 28 31  1  0  0  0  0
 28 53  1  0  0  0  0
 29 32  1  0  0  0  0
 29 54  1  0  0  0  0
 30 33  2  0  0  0  0
 30 55  1  0  0  0  0
 32 34  2  0  0  0  0
 32 56  1  0  0  0  0
 33 34  1  0  0  0  0
 33 57  1  0  0  0  0
 34 58  1  0  0  0  0
 35 59  1  0  0  0  0
 35 60  1  0  0  0  0
 35 61  1  0  0  0  0
M  END
> <PUBCHEM_COMPOUND_CID>
7051380

> <PUBCHEM_CONFORMER_RMSD>
1

> <PUBCHEM_CONFORMER_DIVERSEORDER>
1
86
87
20
80
57
62
48
35
55
21
12
71
51
11
66
84
88
63
67
53
10
78
45
39
77
52
65
50
38
73
79
5
17
58
74
44
33
41
81
72
30
14
60
19
27
90
8
61
34
83
15
68
18
36
43
26
49
25
42
40
56
29
82
69
70
23
46
16
24
64
4
47
89
75
6
31
76
37
85
54
32
13
59
9
2
28
7
22
3

> <PUBCHEM_MMFF94_PARTIAL_CHARGES>
46
1 1.45
10 -0.75
12 0.14
14 0.3
15 0.3
16 0.3
17 -0.03
18 -0.15
19 0.62
2 -0.57
20 0.69
21 0.21
22 -0.15
23 0.12
24 -0.01
25 -0.15
26 -0.15
27 -0.15
28 -0.15
29 -0.15
3 -0.57
30 -0.15
31 0.08
32 -0.15
33 -0.15
34 -0.15
35 0.28
4 -0.65
46 0.15
47 0.15
48 0.37
49 0.42
5 -0.65
50 0.15
51 0.15
52 0.15
53 0.15
54 0.15
55 0.15
56 0.15
57 0.15
58 0.15
6 -0.36
7 -0.66
8 -0.47
9 -0.55

> <PUBCHEM_EFFECTIVE_ROTOR_COUNT>
8

> <PUBCHEM_PHARMACOPHORE_FEATURES>
12
1 10 donor
1 2 acceptor
1 3 acceptor
1 4 acceptor
1 5 acceptor
1 6 acceptor
1 9 donor
6 23 25 26 27 28 31 rings
6 24 29 30 32 33 34 rings
6 7 11 12 13 14 16 rings
6 8 11 12 13 15 17 rings
6 8 17 18 19 21 22 rings

> <PUBCHEM_HEAVY_ATOM_COUNT>
35

> <PUBCHEM_ATOM_DEF_STEREO_COUNT>
2

> <PUBCHEM_ATOM_UDEF_STEREO_COUNT>
0

> <PUBCHEM_BOND_DEF_STEREO_COUNT>
0

> <PUBCHEM_BOND_UDEF_STEREO_COUNT>
0

> <PUBCHEM_ISOTOPIC_ATOM_COUNT>
0

> <PUBCHEM_COMPONENT_COUNT>
1

> <PUBCHEM_CACTVS_TAUTO_COUNT>
2

> <PUBCHEM_CONFORMER_ID>
006B987400000001

> <PUBCHEM_MMFF94_ENERGY>
100.6904

> <PUBCHEM_FEATURE_SELFOVERLAP>
62.487

> <PUBCHEM_SHAPE_FINGERPRINT>
11200772 71 17683823372993732580
11285246 1 17551763230066397239
11488393 25 18261955129240470976
11513181 2 18273497874938939471
11578080 2 18043813074694604213
12156800 1 17318778811668406038
13165054 342 18046360892576209996
13402501 40 18269000945500572628
14028597 1 17702127883811293833
14251757 5 17831310767320618132
14415361 192 17101145598955574097
14659021 117 17331384884722473376
14725015 67 17762901360900230043
14840074 17 17894916273404671365
15274700 242 17243273180006290280
15927050 60 18341610447859309407
16719943 64 18265334096118911978
17627616 140 18409162221080885898
20764821 26 18269252673797846746
21133410 230 17680176210592221963
21344244 246 18338217342270354767
21796203 349 17402937364736472098
3298306 158 18410571807951536030
373842 8 18264763265212304298
463206 1 17761777265454041036
469060 322 17823717436750051619
50150288 127 17129612079616148184
5080951 261 17828733452105017184
508706 21 18122903402226350302
5265222 85 18118973730737268941
57676310 188 18335150765870352326

> <PUBCHEM_SHAPE_MULTIPOLES>
674.86
10.6
6.46
1.81
3.04
6.97
-0.03
-4.67
1.42
6.85
-0.99
-0.13
-0.37
-0.38

> <PUBCHEM_SHAPE_SELFOVERLAP>
1460.777

> <PUBCHEM_SHAPE_VOLUME>
368

> <PUBCHEM_COORDINATE_TYPE>
2
5
10

$$$$
