75536080
  -OEChem-12032416293D

 43 45  0     1  0  0  0  0  0999 V2000
    1.1287    3.4572   -1.0619 O   0  0  0  0  0  0  0  0  0  0  0  0
    3.6409    2.3641   -0.8777 O   0  0  0  0  0  0  0  0  0  0  0  0
   -0.5330   -0.8349   -1.3818 O   0  0  0  0  0  0  0  0  0  0  0  0
   -0.3569    0.9735    0.0599 N   0  0  0  0  0  0  0  0  0  0  0  0
    2.2619   -3.3091    0.9325 N   0  0  0  0  0  0  0  0  0  0  0  0
   -3.0690    0.7445    0.5185 N   0  0  0  0  0  0  0  0  0  0  0  0
   -4.3589    0.3668    0.5203 N   0  0  0  0  0  0  0  0  0  0  0  0
    1.9025    0.4674    0.9397 C   0  0  2  0  0  0  0  0  0  0  0  0
    1.0542    1.2008   -0.1237 C   0  0  2  0  0  0  0  0  0  0  0  0
    1.4261    2.6694    0.0754 C   0  0  1  0  0  0  0  0  0  0  0  0
    3.0929    1.4101    1.2542 C   0  0  0  0  0  0  0  0  0  0  0  0
    2.9278    2.6145    0.3295 C   0  0  1  0  0  0  0  0  0  0  0  0
    2.3075   -0.9283    0.5148 C   0  0  0  0  0  0  0  0  0  0  0  0
    3.0674   -1.1364   -0.6309 C   0  0  0  0  0  0  0  0  0  0  0  0
    1.9335   -2.0381    1.2553 C   0  0  0  0  0  0  0  0  0  0  0  0
   -1.0421   -0.0411   -0.5949 C   0  0  0  0  0  0  0  0  0  0  0  0
   -2.4993   -0.1268   -0.3184 C   0  0  0  0  0  0  0  0  0  0  0  0
    3.4251   -2.4296   -0.9958 C   0  0  0  0  0  0  0  0  0  0  0  0
    3.0012   -3.4721   -0.1876 C   0  0  0  0  0  0  0  0  0  0  0  0
   -3.4180   -1.0533   -0.8468 C   0  0  0  0  0  0  0  0  0  0  0  0
   -4.6203   -0.7055   -0.2812 C   0  0  0  0  0  0  0  0  0  0  0  0
   -5.9661   -1.2886   -0.4312 C   0  0  0  0  0  0  0  0  0  0  0  0
   -5.3060    1.0955    1.3318 C   0  0  0  0  0  0  0  0  0  0  0  0
    1.3145    0.3812    1.8654 H   0  0  0  0  0  0  0  0  0  0  0  0
    1.3088    0.8965   -1.1465 H   0  0  0  0  0  0  0  0  0  0  0  0
    0.9035    3.0921    0.9428 H   0  0  0  0  0  0  0  0  0  0  0  0
    3.0043    1.7417    2.2964 H   0  0  0  0  0  0  0  0  0  0  0  0
    4.0678    0.9239    1.1428 H   0  0  0  0  0  0  0  0  0  0  0  0
    3.3108    3.5441    0.7608 H   0  0  0  0  0  0  0  0  0  0  0  0
   -0.8598    1.5580    0.7219 H   0  0  0  0  0  0  0  0  0  0  0  0
    1.4772    4.3500   -0.8978 H   0  0  0  0  0  0  0  0  0  0  0  0
    4.5845    2.2999   -0.6517 H   0  0  0  0  0  0  0  0  0  0  0  0
    3.3939   -0.3074   -1.2508 H   0  0  0  0  0  0  0  0  0  0  0  0
    1.3395   -1.9431    2.1589 H   0  0  0  0  0  0  0  0  0  0  0  0
    4.0176   -2.6156   -1.8842 H   0  0  0  0  0  0  0  0  0  0  0  0
    3.2539   -4.4995   -0.4284 H   0  0  0  0  0  0  0  0  0  0  0  0
   -3.2366   -1.8616   -1.5408 H   0  0  0  0  0  0  0  0  0  0  0  0
   -6.3466   -1.6470    0.5307 H   0  0  0  0  0  0  0  0  0  0  0  0
   -6.6697   -0.5511   -0.8307 H   0  0  0  0  0  0  0  0  0  0  0  0
   -5.9499   -2.1396   -1.1201 H   0  0  0  0  0  0  0  0  0  0  0  0
   -5.7463    0.4042    2.0544 H   0  0  0  0  0  0  0  0  0  0  0  0
   -4.7914    1.9031    1.8593 H   0  0  0  0  0  0  0  0  0  0  0  0
   -6.0740    1.5131    0.6762 H   0  0  0  0  0  0  0  0  0  0  0  0
  1 10  1  0  0  0  0
  1 31  1  0  0  0  0
  2 12  1  0  0  0  0
  2 32  1  0  0  0  0
  3 16  2  0  0  0  0
  4  9  1  0  0  0  0
  4 16  1  0  0  0  0
  4 30  1  0  0  0  0
  5 15  1  0  0  0  0
  5 19  2  0  0  0  0
  6  7  1  0  0  0  0
  6 17  2  0  0  0  0
  7 21  1  0  0  0  0
  7 23  1  0  0  0  0
  8  9  1  0  0  0  0
  8 11  1  0  0  0  0
  8 13  1  0  0  0  0
  8 24  1  0  0  0  0
  9 10  1  0  0  0  0
  9 25  1  0  0  0  0
 10 12  1  0  0  0  0
 10 26  1  0  0  0  0
 11 12  1  0  0  0  0
 11 27  1  0  0  0  0
 11 28  1  0  0  0  0
 12 29  1  0  0  0  0
 13 14  1  0  0  0  0
 13 15  2  0  0  0  0
 14 18  2  0  0  0  0
 14 33  1  0  0  0  0
 15 34  1  0  0  0  0
 16 17  1  0  0  0  0
 17 20  1  0  0  0  0
 18 19  1  0  0  0  0
 18 35  1  0  0  0  0
 19 36  1  0  0  0  0
 20 21  2  0  0  0  0
 20 37  1  0  0  0  0
 21 22  1  0  0  0  0
 22 38  1  0  0  0  0
 22 39  1  0  0  0  0
 22 40  1  0  0  0  0
 23 41  1  0  0  0  0
 23 42  1  0  0  0  0
 23 43  1  0  0  0  0
M  END
> <PUBCHEM_COMPOUND_CID>
75536080

> <PUBCHEM_CONFORMER_RMSD>
0.8

> <PUBCHEM_CONFORMER_DIVERSEORDER>
1
28
10
22
13
11
40
16
12
33
36
17
31
42
32
19
20
29
27
4
8
37
24
30
15
18
35
3
26
14
5
38
25
2
39
41
6
21
23
9
7
34

> <PUBCHEM_MMFF94_PARTIAL_CHARGES>
30
1 -0.68
10 0.28
12 0.28
13 -0.14
14 -0.15
15 0.16
16 0.72
17 0.2
18 -0.15
19 0.16
2 -0.68
20 -0.15
21 -0.33
22 0.18
23 0.26
3 -0.57
30 0.37
31 0.4
32 0.4
33 0.15
34 0.15
35 0.15
36 0.15
37 0.15
4 -0.73
5 -0.62
6 -0.71
7 0.31
8 0.14
9 0.3

> <PUBCHEM_EFFECTIVE_ROTOR_COUNT>
5

> <PUBCHEM_PHARMACOPHORE_FEATURES>
11
1 1 acceptor
1 1 donor
1 2 acceptor
1 2 donor
1 3 acceptor
1 4 donor
1 5 acceptor
1 6 acceptor
5 6 7 17 20 21 rings
5 8 9 10 11 12 rings
6 5 13 14 15 18 19 rings

> <PUBCHEM_HEAVY_ATOM_COUNT>
23

> <PUBCHEM_ATOM_DEF_STEREO_COUNT>
4

> <PUBCHEM_ATOM_UDEF_STEREO_COUNT>
0

> <PUBCHEM_BOND_DEF_STEREO_COUNT>
0

> <PUBCHEM_BOND_UDEF_STEREO_COUNT>
0

> <PUBCHEM_ISOTOPIC_ATOM_COUNT>
0

> <PUBCHEM_COMPONENT_COUNT>
1

> <PUBCHEM_CACTVS_TAUTO_COUNT>
2

> <PUBCHEM_CONFORMER_ID>
048096D000000001

> <PUBCHEM_MMFF94_ENERGY>
52.0198

> <PUBCHEM_FEATURE_SELFOVERLAP>
55.834

> <PUBCHEM_SHAPE_FINGERPRINT>
10382601 240 18339626911364919514
11140007 195 16844730803061153302
11421498 54 18201441418966968872
114674 6 18259980470328476771
12107183 9 18055360128766132177
12553582 1 18194394498731524454
12633257 1 17896300558374781890
12788726 201 17686630039183793154
13009979 54 17774730740156932162
13140716 1 17979058702748678368
13167823 11 18272087210748285319
13533116 47 18342453777520007083
14178342 30 17984118620894384978
14790565 3 18120940761324082972
14863182 85 18337387240613023092
17492 54 18116172081358081564
17492 89 18413950590378615679
17818456 19 17845098359665360817
1813 80 18198065772409495918
20157964 124 18336252549161054239
20645477 70 18408877460554082911
20832881 197 18044095644708113579
21065198 48 18272934934302633809
21197605 99 17902794407583692995
21421861 104 18410291372319929776
2255824 54 18409729594866004654
22950370 63 18196097650695760103
23557571 272 15503193636169869343
23559900 14 18341604894055086835
239999 70 18409728495101643466
3060560 45 18263361567937659324
3117164 225 18197224650968513481
31174 14 18336536153560848446
312423 11 18272375265482686955
314173 41 18267309737561429246
3421961 26 18340200804499703170
3633792 109 18337375099183466071
4409770 3 17254837473201136740
474 4 18263359368508085161
5104073 3 18131075931270963059
7097593 13 18342168973457981543
7364860 26 18341610442994298316
8272917 22 18337107968458526821
8509985 295 17203321166326506001
9709674 26 18335420209921188187
9841814 1 18261385594907304970

> <PUBCHEM_SHAPE_MULTIPOLES>
435.8
10.24
3.84
1.19
17.88
0.19
0.11
2.45
0.75
-5.89
-0.27
-0.21
0.03
-0.9

> <PUBCHEM_SHAPE_SELFOVERLAP>
932.425

> <PUBCHEM_SHAPE_VOLUME>
242.5

> <PUBCHEM_COORDINATE_TYPE>
2
5
10

$$$$
