51137139
  -OEChem-12032416243D

 53 56  0     1  0  0  0  0  0999 V2000
    5.8116   -1.2471    0.1731 S   0  0  0  0  0  0  0  0  0  0  0  0
    1.0253    2.0284    0.7575 O   0  0  0  0  0  0  0  0  0  0  0  0
    6.7385   -0.9960    1.2669 O   0  0  0  0  0  0  0  0  0  0  0  0
    5.3434   -2.6004   -0.0845 O   0  0  0  0  0  0  0  0  0  0  0  0
   -3.4131    0.8703   -0.3695 N   0  0  1  0  0  0  0  0  0  0  0  0
   -7.0962   -1.0874    0.4468 N   0  0  0  0  0  0  0  0  0  0  0  0
    0.7819    0.1304   -0.4571 N   0  0  0  0  0  0  0  0  0  0  0  0
   -4.3891   -0.2085   -0.2337 C   0  0  0  0  0  0  0  0  0  0  0  0
   -1.2213    1.6642   -0.1137 C   0  0  2  0  0  0  0  0  0  0  0  0
   -2.2268    0.6583    0.4626 C   0  0  0  0  0  0  0  0  0  0  0  0
   -2.9001    0.9889   -1.7343 C   0  0  0  0  0  0  0  0  0  0  0  0
   -1.6855    1.8922   -1.5628 C   0  0  0  0  0  0  0  0  0  0  0  0
   -5.5848    0.0395   -1.1570 C   0  0  0  0  0  0  0  0  0  0  0  0
   -4.8665   -0.3367    1.2158 C   0  0  0  0  0  0  0  0  0  0  0  0
   -6.6636   -1.0280   -0.9564 C   0  0  0  0  0  0  0  0  0  0  0  0
   -5.9689   -1.3917    1.3390 C   0  0  0  0  0  0  0  0  0  0  0  0
    0.2133    1.2114    0.0297 C   0  0  0  0  0  0  0  0  0  0  0  0
   -8.1615   -2.0757    0.6127 C   0  0  0  0  0  0  0  0  0  0  0  0
    2.0804    0.2317   -0.0196 C   0  0  0  0  0  0  0  0  0  0  0  0
    2.2331    1.3923    0.7243 C   0  0  0  0  0  0  0  0  0  0  0  0
    3.1895   -0.6063   -0.2033 C   0  0  0  0  0  0  0  0  0  0  0  0
    3.4213    1.8028    1.3162 C   0  0  0  0  0  0  0  0  0  0  0  0
    4.4070   -0.2253    0.3793 C   0  0  0  0  0  0  0  0  0  0  0  0
    4.5179    0.9558    1.1235 C   0  0  0  0  0  0  0  0  0  0  0  0
    6.5816   -0.6409   -1.3103 C   0  0  0  0  0  0  0  0  0  0  0  0
    7.8325   -1.4222   -1.6451 C   0  0  0  0  0  0  0  0  0  0  0  0
   -3.9291   -1.1647   -0.5241 H   0  0  0  0  0  0  0  0  0  0  0  0
   -1.3331    2.6174    0.4228 H   0  0  0  0  0  0  0  0  0  0  0  0
   -1.8513   -0.3704    0.3814 H   0  0  0  0  0  0  0  0  0  0  0  0
   -2.4106    0.8788    1.5197 H   0  0  0  0  0  0  0  0  0  0  0  0
   -3.6132    1.4509   -2.4238 H   0  0  0  0  0  0  0  0  0  0  0  0
   -2.5867    0.0190   -2.1415 H   0  0  0  0  0  0  0  0  0  0  0  0
   -0.9137    1.6674   -2.3066 H   0  0  0  0  0  0  0  0  0  0  0  0
   -1.9752    2.9428   -1.6906 H   0  0  0  0  0  0  0  0  0  0  0  0
   -6.0161    1.0317   -0.9664 H   0  0  0  0  0  0  0  0  0  0  0  0
   -5.2894    0.0133   -2.2120 H   0  0  0  0  0  0  0  0  0  0  0  0
   -4.0469   -0.6323    1.8807 H   0  0  0  0  0  0  0  0  0  0  0  0
   -5.2450    0.6282    1.5794 H   0  0  0  0  0  0  0  0  0  0  0  0
   -7.5175   -0.7742   -1.5964 H   0  0  0  0  0  0  0  0  0  0  0  0
   -6.2846   -2.0030   -1.2905 H   0  0  0  0  0  0  0  0  0  0  0  0
   -5.5546   -2.3851    1.1212 H   0  0  0  0  0  0  0  0  0  0  0  0
   -6.3138   -1.4042    2.3802 H   0  0  0  0  0  0  0  0  0  0  0  0
   -9.0232   -1.8217   -0.0146 H   0  0  0  0  0  0  0  0  0  0  0  0
   -7.8317   -3.0880    0.3524 H   0  0  0  0  0  0  0  0  0  0  0  0
   -8.5200   -2.0851    1.6480 H   0  0  0  0  0  0  0  0  0  0  0  0
    3.0921   -1.5150   -0.7876 H   0  0  0  0  0  0  0  0  0  0  0  0
    3.4967    2.7190    1.8883 H   0  0  0  0  0  0  0  0  0  0  0  0
    5.4689    1.2450    1.5649 H   0  0  0  0  0  0  0  0  0  0  0  0
    6.8234    0.4146   -1.1532 H   0  0  0  0  0  0  0  0  0  0  0  0
    5.8526   -0.7244   -2.1219 H   0  0  0  0  0  0  0  0  0  0  0  0
    8.2886   -1.0354   -2.5616 H   0  0  0  0  0  0  0  0  0  0  0  0
    7.6080   -2.4826   -1.7982 H   0  0  0  0  0  0  0  0  0  0  0  0
    8.5719   -1.3505   -0.8411 H   0  0  0  0  0  0  0  0  0  0  0  0
  1  3  2  0  0  0  0
  1  4  2  0  0  0  0
  1 23  1  0  0  0  0
  1 25  1  0  0  0  0
  2 17  1  0  0  0  0
  2 20  1  0  0  0  0
  5  8  1  0  0  0  0
  5 10  1  0  0  0  0
  5 11  1  0  0  0  0
  6 15  1  0  0  0  0
  6 16  1  0  0  0  0
  6 18  1  0  0  0  0
  7 17  2  0  0  0  0
  7 19  1  0  0  0  0
  8 13  1  0  0  0  0
  8 14  1  0  0  0  0
  8 27  1  0  0  0  0
  9 10  1  0  0  0  0
  9 12  1  0  0  0  0
  9 17  1  0  0  0  0
  9 28  1  0  0  0  0
 10 29  1  0  0  0  0
 10 30  1  0  0  0  0
 11 12  1  0  0  0  0
 11 31  1  0  0  0  0
 11 32  1  0  0  0  0
 12 33  1  0  0  0  0
 12 34  1  0  0  0  0
 13 15  1  0  0  0  0
 13 35  1  0  0  0  0
 13 36  1  0  0  0  0
 14 16  1  0  0  0  0
 14 37  1  0  0  0  0
 14 38  1  0  0  0  0
 15 39  1  0  0  0  0
 15 40  1  0  0  0  0
 16 41  1  0  0  0  0
 16 42  1  0  0  0  0
 18 43  1  0  0  0  0
 18 44  1  0  0  0  0
 18 45  1  0  0  0  0
 19 20  2  0  0  0  0
 19 21  1  0  0  0  0
 20 22  1  0  0  0  0
 21 23  2  0  0  0  0
 21 46  1  0  0  0  0
 22 24  2  0  0  0  0
 22 47  1  0  0  0  0
 23 24  1  0  0  0  0
 24 48  1  0  0  0  0
 25 26  1  0  0  0  0
 25 49  1  0  0  0  0
 25 50  1  0  0  0  0
 26 51  1  0  0  0  0
 26 52  1  0  0  0  0
 26 53  1  0  0  0  0
M  END
> <PUBCHEM_COMPOUND_CID>
51137139

> <PUBCHEM_CONFORMER_RMSD>
0.8

> <PUBCHEM_CONFORMER_DIVERSEORDER>
1
95
62
23
49
99
100
26
37
84
8
71
78
55
46
80
38
91
44
96
66
39
7
77
74
70
51
12
4
93
17
90
54
15
50
98
87
92
83
57
34
75
29
22
59
94
73
82
76
24
6
32
27
89
68
52
56
9
40
19
97
16
28
81
3
33
36
69
64
13
67
10
53
65
31
88
14
35
85
48
20
63
43
11
42
18
45
60
47
86
30
21
41
61
25
58
5
79
2
72

> <PUBCHEM_MMFF94_PARTIAL_CHARGES>
25
1 1.2
10 0.27
11 0.27
15 0.27
16 0.27
17 0.3
18 0.27
19 0.23
2 -0.28
20 0.14
21 -0.15
22 -0.15
23 -0.01
24 -0.15
25 0.11
3 -0.65
4 -0.65
46 0.15
47 0.15
48 0.15
5 -0.81
6 -0.81
7 -0.57
8 0.27
9 0.18

> <PUBCHEM_EFFECTIVE_ROTOR_COUNT>
6.2

> <PUBCHEM_PHARMACOPHORE_FEATURES>
8
1 3 acceptor
1 4 acceptor
1 5 cation
1 6 cation
5 2 7 17 19 20 rings
5 5 9 10 11 12 rings
6 19 20 21 22 23 24 rings
6 6 8 13 14 15 16 rings

> <PUBCHEM_HEAVY_ATOM_COUNT>
26

> <PUBCHEM_ATOM_DEF_STEREO_COUNT>
1

> <PUBCHEM_ATOM_UDEF_STEREO_COUNT>
0

> <PUBCHEM_BOND_DEF_STEREO_COUNT>
0

> <PUBCHEM_BOND_UDEF_STEREO_COUNT>
0

> <PUBCHEM_ISOTOPIC_ATOM_COUNT>
0

> <PUBCHEM_COMPONENT_COUNT>
1

> <PUBCHEM_CACTVS_TAUTO_COUNT>
1

> <PUBCHEM_CONFORMER_ID>
030C4A7300000001

> <PUBCHEM_MMFF94_ENERGY>
29.5639

> <PUBCHEM_FEATURE_SELFOVERLAP>
40.733

> <PUBCHEM_SHAPE_FINGERPRINT>
10076449 9 18343028783446284190
10280341 67 12534809089021955643
10816530 90 11959441371155317650
12236239 1 16486970726015159481
12596602 18 17131551743293473643
12616971 3 17060048263912982908
12760667 363 18411698786306301865
12778500 126 12463572842858874046
13402501 40 18334858320587461555
13533116 47 18060134383899513536
13627175 4 18130219364337072614
13668630 136 18411699876531890106
13673619 4 18411136935116000148
13685833 64 18343300366617459336
13782708 43 18408598141318495930
14123256 34 18413672404660505991
14251764 18 16845569842202334256
14294032 229 16517355593312227957
14556957 393 14851890201448988583
14849402 71 16342845689916872760
15238133 3 13901905643763590832
15352257 5 18408886243472436131
15510800 12 18041287668605982723
1577012 14 14129329668778150765
18222031 100 17313099756838513588
18335252 98 18408322203451363680
18643901 69 18040157301779592751
20028762 73 17847057791996034278
20105231 36 17917999361047964046
2026 5 17969213435596082330
20281389 69 11527952261654581723
20715895 44 7997960281212932054
21033650 10 16443621286743485941
21049683 271 18411985776312060820
21150785 3 16660366982786190118
21267235 1 18131354094558700116
21298829 104 12179841680313418343
21307412 95 17531527698548935283
21315763 76 12685103566366956206
21365058 113 18333735740437599300
21623969 137 18272650138488359710
22864921 267 14189029838672730524
2303208 19 18410287004137781236
23522609 53 18195560079920842840
23559900 14 17313107492021937749
23569917 315 18265336098313378026
246663 6 18201725041938575150
249057 25 15068887617600289996
2838139 119 9871462084820756691
2916195 48 10952051165323301749
300161 21 11963395137369120304
3004659 81 16805602599012234469
312425 54 14692275232785253510
34797466 226 17676205809953755708
3663271 9 16343130441568305795
4107672 100 17168417170103859133
439807 62 18114178597018684186
46194498 28 18040148544162474324
465052 167 18131068213098388324
504843 32 11026095567782469217
5104073 3 17917988347839213640
54039377 194 18060145310886710102
54076057 127 18059294383360689752
5470011 282 16081371855827691723
563151 248 16988840596637058687
5718773 13 18188763960099952498
57634706 306 13190921873623114638
59755656 215 17894344471486743035
636775 8 18411709760032633326
8863177 126 18411698832844391722
9980921 177 11671517642561539892
999808 66 18343024375997851615

> <PUBCHEM_SHAPE_MULTIPOLES>
506.37
23.17
2.12
1.48
6.43
0.14
-0.29
19.27
-0.89
-0.57
0.12
-0.2
-0.12
2.52

> <PUBCHEM_SHAPE_SELFOVERLAP>
1065.921

> <PUBCHEM_SHAPE_VOLUME>
288.4

> <PUBCHEM_COORDINATE_TYPE>
2
5
10

$$$$
