51137843
  -OEChem-12032416343D

 38 41  0     1  0  0  0  0  0999 V2000
   -1.2194    0.8859   -0.2460 O   0  0  0  0  0  0  0  0  0  0  0  0
    2.5912   -0.0976    2.4597 O   0  0  0  0  0  0  0  0  0  0  0  0
    1.7951    1.2882    0.7746 N   0  0  0  0  0  0  0  0  0  0  0  0
   -2.0788    2.7544   -1.1264 N   0  0  0  0  0  0  0  0  0  0  0  0
   -3.1042    1.8381   -0.9847 N   0  0  0  0  0  0  0  0  0  0  0  0
    3.9939   -0.2270   -0.5363 N   0  0  0  0  0  0  0  0  0  0  0  0
    3.2260   -2.9216   -0.6605 N   0  0  0  0  0  0  0  0  0  0  0  0
   -5.1042   -1.8985    0.0326 N   0  0  0  0  0  0  0  0  0  0  0  0
    0.4271    2.6739   -0.5936 C   0  0  1  0  0  0  0  0  0  0  0  0
    0.6928    3.3742    0.7481 C   0  0  0  0  0  0  0  0  0  0  0  0
    1.5435    1.6206   -0.6286 C   0  0  0  0  0  0  0  0  0  0  0  0
    1.1585    2.2490    1.6621 C   0  0  0  0  0  0  0  0  0  0  0  0
   -0.9980    2.1559   -0.6827 C   0  0  0  0  0  0  0  0  0  0  0  0
    2.4665    0.1807    1.2687 C   0  0  0  0  0  0  0  0  0  0  0  0
    3.0645   -0.7430    0.2922 C   0  0  0  0  0  0  0  0  0  0  0  0
   -2.5568    0.7630   -0.4676 C   0  0  0  0  0  0  0  0  0  0  0  0
   -3.1394   -0.4967   -0.1067 C   0  0  0  0  0  0  0  0  0  0  0  0
    2.6872   -2.0665    0.2312 C   0  0  0  0  0  0  0  0  0  0  0  0
   -2.3645   -1.5164    0.4349 C   0  0  0  0  0  0  0  0  0  0  0  0
   -4.4923   -0.7359   -0.2862 C   0  0  0  0  0  0  0  0  0  0  0  0
    4.5327   -1.0821   -1.4280 C   0  0  0  0  0  0  0  0  0  0  0  0
    4.1555   -2.4056   -1.4890 C   0  0  0  0  0  0  0  0  0  0  0  0
   -2.9578   -2.7269    0.7755 C   0  0  0  0  0  0  0  0  0  0  0  0
   -4.3189   -2.8663    0.5566 C   0  0  0  0  0  0  0  0  0  0  0  0
    0.5546    3.3774   -1.4253 H   0  0  0  0  0  0  0  0  0  0  0  0
    1.5086    4.0974    0.6218 H   0  0  0  0  0  0  0  0  0  0  0  0
   -0.1715    3.9079    1.1552 H   0  0  0  0  0  0  0  0  0  0  0  0
    2.4681    2.0543   -1.0263 H   0  0  0  0  0  0  0  0  0  0  0  0
    1.2900    0.7275   -1.2074 H   0  0  0  0  0  0  0  0  0  0  0  0
    1.8605    2.5848    2.4314 H   0  0  0  0  0  0  0  0  0  0  0  0
    0.3156    1.7489    2.1518 H   0  0  0  0  0  0  0  0  0  0  0  0
    1.9384   -2.4888    0.8912 H   0  0  0  0  0  0  0  0  0  0  0  0
   -1.2969   -1.4021    0.6048 H   0  0  0  0  0  0  0  0  0  0  0  0
   -5.1564    0.0154   -0.7038 H   0  0  0  0  0  0  0  0  0  0  0  0
    5.2793   -0.6680   -2.0942 H   0  0  0  0  0  0  0  0  0  0  0  0
    4.5888   -3.0920   -2.2059 H   0  0  0  0  0  0  0  0  0  0  0  0
   -2.3737   -3.5359    1.1990 H   0  0  0  0  0  0  0  0  0  0  0  0
   -4.8295   -3.7908    0.8053 H   0  0  0  0  0  0  0  0  0  0  0  0
  1 13  1  0  0  0  0
  1 16  1  0  0  0  0
  2 14  2  0  0  0  0
  3 11  1  0  0  0  0
  3 12  1  0  0  0  0
  3 14  1  0  0  0  0
  4  5  1  0  0  0  0
  4 13  2  0  0  0  0
  5 16  2  0  0  0  0
  6 15  2  0  0  0  0
  6 21  1  0  0  0  0
  7 18  2  0  0  0  0
  7 22  1  0  0  0  0
  8 20  1  0  0  0  0
  8 24  2  0  0  0  0
  9 10  1  0  0  0  0
  9 11  1  0  0  0  0
  9 13  1  0  0  0  0
  9 25  1  0  0  0  0
 10 12  1  0  0  0  0
 10 26  1  0  0  0  0
 10 27  1  0  0  0  0
 11 28  1  0  0  0  0
 11 29  1  0  0  0  0
 12 30  1  0  0  0  0
 12 31  1  0  0  0  0
 14 15  1  0  0  0  0
 15 18  1  0  0  0  0
 16 17  1  0  0  0  0
 17 19  1  0  0  0  0
 17 20  2  0  0  0  0
 18 32  1  0  0  0  0
 19 23  2  0  0  0  0
 19 33  1  0  0  0  0
 20 34  1  0  0  0  0
 21 22  2  0  0  0  0
 21 35  1  0  0  0  0
 22 36  1  0  0  0  0
 23 24  1  0  0  0  0
 23 37  1  0  0  0  0
 24 38  1  0  0  0  0
M  END
> <PUBCHEM_COMPOUND_CID>
51137843

> <PUBCHEM_CONFORMER_RMSD>
0.8

> <PUBCHEM_CONFORMER_DIVERSEORDER>
1
59
139
116
145
46
60
9
110
73
122
40
131
128
107
115
121
34
72
141
42
127
58
19
15
35
109
68
135
25
119
80
37
102
71
76
90
111
77
57
30
4
48
96
27
147
83
125
64
6
85
118
117
3
130
101
63
123
99
44
133
24
88
106
38
104
5
78
84
14
29
39
87
66
51
45
89
75
17
18
12
105
97
114
8
69
95
91
103
108
94
28
98
54
142
13
53
93
67
113
70
33
50
136
92
7
55
11
26
32
82
62
124
100
132
144
79
10
43
129
137
36
74
22
112
138
146
2
81
23
120
52
134
20
86
140
126
16
41
143
47
65
21
56
49
31
61

> <PUBCHEM_MMFF94_PARTIAL_CHARGES>
30
1 -0.28
11 0.3
12 0.3
13 0.3
14 0.54
15 0.4
16 0.43
17 0.05
18 0.16
19 -0.15
2 -0.57
20 0.16
21 0.16
22 0.16
23 -0.15
24 0.16
3 -0.66
32 0.15
33 0.15
34 0.15
35 0.15
36 0.15
37 0.15
38 0.15
4 -0.34
5 -0.34
6 -0.62
7 -0.62
8 -0.62
9 0.18

> <PUBCHEM_EFFECTIVE_ROTOR_COUNT>
5

> <PUBCHEM_PHARMACOPHORE_FEATURES>
8
1 2 acceptor
1 6 acceptor
1 7 acceptor
1 8 acceptor
5 1 4 5 13 16 rings
5 3 9 10 11 12 rings
6 6 7 15 18 21 22 rings
6 8 17 19 20 23 24 rings

> <PUBCHEM_HEAVY_ATOM_COUNT>
24

> <PUBCHEM_ATOM_DEF_STEREO_COUNT>
1

> <PUBCHEM_ATOM_UDEF_STEREO_COUNT>
0

> <PUBCHEM_BOND_DEF_STEREO_COUNT>
0

> <PUBCHEM_BOND_UDEF_STEREO_COUNT>
0

> <PUBCHEM_ISOTOPIC_ATOM_COUNT>
0

> <PUBCHEM_COMPONENT_COUNT>
1

> <PUBCHEM_CACTVS_TAUTO_COUNT>
1

> <PUBCHEM_CONFORMER_ID>
030C4D3300000001

> <PUBCHEM_MMFF94_ENERGY>
58.9879

> <PUBCHEM_FEATURE_SELFOVERLAP>
40.603

> <PUBCHEM_SHAPE_FINGERPRINT>
114674 6 18264484168681910259
12506688 2 18413390942758867512
12553582 1 18260545632563906443
12712778 12 17616228314142511994
13135754 10 16699516077840671856
13402501 40 18337390551442257130
13533116 47 18128539456724597915
13631057 29 18339934714734079230
13911882 115 18343580772395259186
14251740 57 18124882510783589619
14251740 79 17906186048783582150
14251757 5 18263935336348787455
14251764 30 17274279257374371014
14363568 33 18123769783182098054
14681488 357 18340492290992758111
14863182 85 17829893483430898964
14866123 147 18196379109278091577
15352361 1 18409733966926765647
15664445 248 17097494456121993261
17909252 39 18341066180876085812
17974551 9 17274261630485612465
1979834 28 17907016532244032011
20645477 70 18045777055732181287
20775530 9 18412546500538324011
21279426 13 18261940926479864559
23379529 103 18198073482261128806
23428019 142 16974234405196701454
23466295 7 17981905042132180502
23559900 14 18335699502969869709
238078 22 18267877094567702996
3117164 225 18341067272014089825
314173 41 18115023138297632577
329604 57 18408893932149412630
3737641 26 18342188790300058640
4280585 95 18188205395703259116
6823239 73 18411415120490160066
7987 15 18200884993089695742
9709674 26 18337942485194363093
9862886 166 18124032335235100798

> <PUBCHEM_SHAPE_MULTIPOLES>
452.28
9.42
4.29
1.45
3.53
0.69
-0.49
-9.49
1.74
0.37
0.25
-1.34
0.23
2.46

> <PUBCHEM_SHAPE_SELFOVERLAP>
994.556

> <PUBCHEM_SHAPE_VOLUME>
242.8

> <PUBCHEM_COORDINATE_TYPE>
2
5
10

$$$$
