75536896
  -OEChem-12032416303D

 43 45  0     1  0  0  0  0  0999 V2000
   -2.0345   -2.6761   -1.1387 O   0  0  0  0  0  0  0  0  0  0  0  0
   -2.0039    0.8426   -0.2710 O   0  0  0  0  0  0  0  0  0  0  0  0
    2.5211   -3.0134    0.4229 O   0  0  0  0  0  0  0  0  0  0  0  0
    5.0386    2.7120    0.0619 O   0  0  0  0  0  0  0  0  0  0  0  0
    0.5125   -1.8065    0.4673 N   0  0  0  0  0  0  0  0  0  0  0  0
   -4.1322    0.1623    0.3717 N   0  0  0  0  0  0  0  0  0  0  0  0
   -5.0439    2.7924    0.0295 N   0  0  0  0  0  0  0  0  0  0  0  0
   -1.6257   -0.5202   -0.0717 C   0  0  2  0  0  0  0  0  0  0  0  0
   -0.1708   -0.5090    0.4059 C   0  0  0  0  0  0  0  0  0  0  0  0
   -0.3035   -3.0184    0.5582 C   0  0  0  0  0  0  0  0  0  0  0  0
   -1.8241   -1.2878   -1.3771 C   0  0  0  0  0  0  0  0  0  0  0  0
   -0.8597   -3.4077   -0.8054 C   0  0  0  0  0  0  0  0  0  0  0  0
    1.9090   -1.9460    0.4065 C   0  0  0  0  0  0  0  0  0  0  0  0
    2.7289   -0.7275    0.3161 C   0  0  0  0  0  0  0  0  0  0  0  0
   -3.3135    1.1547   -0.0301 C   0  0  0  0  0  0  0  0  0  0  0  0
    3.1750   -0.0994    1.4789 C   0  0  0  0  0  0  0  0  0  0  0  0
    3.0591   -0.2000   -0.9322 C   0  0  0  0  0  0  0  0  0  0  0  0
    3.9511    1.0564    1.3935 C   0  0  0  0  0  0  0  0  0  0  0  0
    3.8352    0.9559   -1.0178 C   0  0  0  0  0  0  0  0  0  0  0  0
    4.2812    1.5841    0.1450 C   0  0  0  0  0  0  0  0  0  0  0  0
   -3.7613    2.4466   -0.1981 C   0  0  0  0  0  0  0  0  0  0  0  0
   -5.4148    0.5082    0.5993 C   0  0  0  0  0  0  0  0  0  0  0  0
   -5.8626    1.8000    0.4312 C   0  0  0  0  0  0  0  0  0  0  0  0
    5.3388    3.1970   -1.2460 C   0  0  0  0  0  0  0  0  0  0  0  0
   -2.2047   -0.9878    0.7350 H   0  0  0  0  0  0  0  0  0  0  0  0
    0.4012    0.1760   -0.2286 H   0  0  0  0  0  0  0  0  0  0  0  0
   -0.1250   -0.0777    1.4142 H   0  0  0  0  0  0  0  0  0  0  0  0
   -1.0924   -2.8601    1.3006 H   0  0  0  0  0  0  0  0  0  0  0  0
    0.3248   -3.8382    0.9235 H   0  0  0  0  0  0  0  0  0  0  0  0
   -2.7194   -0.9276   -1.8956 H   0  0  0  0  0  0  0  0  0  0  0  0
   -0.9917   -1.1360   -2.0755 H   0  0  0  0  0  0  0  0  0  0  0  0
   -0.1156   -3.3058   -1.6041 H   0  0  0  0  0  0  0  0  0  0  0  0
   -1.1597   -4.4606   -0.7725 H   0  0  0  0  0  0  0  0  0  0  0  0
    2.9228   -0.5019    2.4566 H   0  0  0  0  0  0  0  0  0  0  0  0
    2.7152   -0.6823   -1.8437 H   0  0  0  0  0  0  0  0  0  0  0  0
    4.2955    1.5415    2.3027 H   0  0  0  0  0  0  0  0  0  0  0  0
    4.0541    1.3117   -2.0187 H   0  0  0  0  0  0  0  0  0  0  0  0
   -3.1067    3.2473   -0.5209 H   0  0  0  0  0  0  0  0  0  0  0  0
   -6.0731   -0.2889    0.9221 H   0  0  0  0  0  0  0  0  0  0  0  0
   -6.8934    2.0770    0.6144 H   0  0  0  0  0  0  0  0  0  0  0  0
    5.9480    4.0986   -1.1244 H   0  0  0  0  0  0  0  0  0  0  0  0
    4.4316    3.4943   -1.7830 H   0  0  0  0  0  0  0  0  0  0  0  0
    5.9405    2.4788   -1.8133 H   0  0  0  0  0  0  0  0  0  0  0  0
  1 11  1  0  0  0  0
  1 12  1  0  0  0  0
  2  8  1  0  0  0  0
  2 15  1  0  0  0  0
  3 13  2  0  0  0  0
  4 20  1  0  0  0  0
  4 24  1  0  0  0  0
  5  9  1  0  0  0  0
  5 10  1  0  0  0  0
  5 13  1  0  0  0  0
  6 15  2  0  0  0  0
  6 22  1  0  0  0  0
  7 21  2  0  0  0  0
  7 23  1  0  0  0  0
  8  9  1  0  0  0  0
  8 11  1  0  0  0  0
  8 25  1  0  0  0  0
  9 26  1  0  0  0  0
  9 27  1  0  0  0  0
 10 12  1  0  0  0  0
 10 28  1  0  0  0  0
 10 29  1  0  0  0  0
 11 30  1  0  0  0  0
 11 31  1  0  0  0  0
 12 32  1  0  0  0  0
 12 33  1  0  0  0  0
 13 14  1  0  0  0  0
 14 16  2  0  0  0  0
 14 17  1  0  0  0  0
 15 21  1  0  0  0  0
 16 18  1  0  0  0  0
 16 34  1  0  0  0  0
 17 19  2  0  0  0  0
 17 35  1  0  0  0  0
 18 20  2  0  0  0  0
 18 36  1  0  0  0  0
 19 20  1  0  0  0  0
 19 37  1  0  0  0  0
 21 38  1  0  0  0  0
 22 23  2  0  0  0  0
 22 39  1  0  0  0  0
 23 40  1  0  0  0  0
 24 41  1  0  0  0  0
 24 42  1  0  0  0  0
 24 43  1  0  0  0  0
M  END
> <PUBCHEM_COMPOUND_CID>
75536896

> <PUBCHEM_CONFORMER_RMSD>
0.8

> <PUBCHEM_CONFORMER_DIVERSEORDER>
1
138
79
246
239
116
186
13
20
101
249
163
42
84
203
255
57
196
218
74
258
7
174
192
9
54
85
257
209
5
149
254
38
212
183
66
139
194
182
60
91
56
260
204
65
108
184
224
125
111
113
173
237
162
63
247
126
201
120
10
95
34
161
256
180
61
136
240
241
92
245
220
251
44
155
198
77
26
223
148
179
123
167
96
244
216
230
188
50
22
171
15
226
164
259
69
165
166
181
128
158
236
90
16
229
189
103
36
18
225
43
221
68
24
262
195
199
153
19
49
127
222
150
211
160
219
248
253
250
168
109
142
147
115
119
227
80
124
3
107
75
176
169
76
100
35
48
213
46
12
234
31
193
67
146
144
134
23
202
207
112
238
217
185
110
140
94
99
41
137
47
72
53
29
187
215
175
114
235
89
233
52
170
17
121
178
39
231
129
228
62
133
154
172
14
214
78
55
205
118
37
145
208
82
190
4
243
157
83
141
88
156
117
151
105
70
106
71
132
25
206
252
30
152
8
263
97
159
242
87
40
261
59
102
177
73
6
86
51
81
11
98
131
2
130
64
93
21
135
33
27
32
28
45
191
197
143
122
200
58
210
104
232

> <PUBCHEM_MMFF94_PARTIAL_CHARGES>
31
1 -0.56
10 0.3
11 0.28
12 0.28
13 0.54
14 0.09
15 0.39
16 -0.15
17 -0.15
18 -0.15
19 -0.15
2 -0.36
20 0.08
21 0.16
22 0.16
23 0.16
24 0.28
3 -0.57
34 0.15
35 0.15
36 0.15
37 0.15
38 0.15
39 0.15
4 -0.36
40 0.15
5 -0.66
6 -0.62
7 -0.62
8 0.28
9 0.3

> <PUBCHEM_EFFECTIVE_ROTOR_COUNT>
6.4

> <PUBCHEM_PHARMACOPHORE_FEATURES>
7
1 1 acceptor
1 3 acceptor
1 4 acceptor
1 7 acceptor
6 14 16 17 18 19 20 rings
6 6 7 15 21 22 23 rings
7 1 5 8 9 10 11 12 rings

> <PUBCHEM_HEAVY_ATOM_COUNT>
24

> <PUBCHEM_ATOM_DEF_STEREO_COUNT>
1

> <PUBCHEM_ATOM_UDEF_STEREO_COUNT>
0

> <PUBCHEM_BOND_DEF_STEREO_COUNT>
0

> <PUBCHEM_BOND_UDEF_STEREO_COUNT>
0

> <PUBCHEM_ISOTOPIC_ATOM_COUNT>
0

> <PUBCHEM_COMPONENT_COUNT>
1

> <PUBCHEM_CACTVS_TAUTO_COUNT>
1

> <PUBCHEM_CONFORMER_ID>
04809A0000000001

> <PUBCHEM_MMFF94_ENERGY>
89.9713

> <PUBCHEM_FEATURE_SELFOVERLAP>
35.524

> <PUBCHEM_SHAPE_FINGERPRINT>
10493431 412 18409167744318852581
10498660 4 18130509729589558856
10937287 8 18411417306296301511
11720765 8 17630899201329090492
12107183 9 18262223479461724552
12173636 292 18342164583891155375
12390115 104 18272380810037676387
12403259 118 18120641449584419203
12788726 201 18049716613989266738
12895837 130 18046919439866840572
12925494 130 17832981651365357409
13540713 5 18339622521545307138
13965767 371 17968086530660772444
14251764 75 18342468006230110249
14257110 125 18408606976172011292
14528608 73 18341328895272266469
1454969 45 18341610452359790471
14790565 3 18341615880539511361
14848178 5 8646769975980371061
14849402 71 18261112907850387130
151778 21 18340200782797733910
15342168 16 18407758135909757149
17349148 13 12180139622774658801
18222031 100 11097862865016828473
18785283 64 18194117421669618530
20465049 17 18268161855094571206
21365058 113 17623868832901392566
21756936 100 18340202007280209750
21864079 5 18334859463180143592
22620623 9 16916210225987421727
23227448 37 18270118036392749669
23559900 14 17834110845632604035
245318 6 17896057574821917653
3178227 256 18123479280121523371
3472631 163 18341333378706758756
350125 39 18265332798817216442
38570 142 17604729862436570484
394222 165 18264482893393199867
474 4 18334573508061913547
5048184 11 18410854382313202428
5104073 3 18188215274064886601
5252454 2 18410847781017222132
550186 72 18410572916760259645
6034566 193 18261106426285736981
633830 44 18200590277177009775
6438754 60 10159694673265585493
7288768 16 17895195557821129354
7808743 9 18337953518923544792
8988823 20 13840561691216733159
960060 61 12895063037725155416
9999458 23 18191589640226777415

> <PUBCHEM_SHAPE_MULTIPOLES>
455.49
12.53
4.14
1.17
5.27
1.18
-0.05
-15.07
0.56
-0.66
-0.8
-0.92
0.07
-1.59

> <PUBCHEM_SHAPE_SELFOVERLAP>
968.092

> <PUBCHEM_SHAPE_VOLUME>
249.9

> <PUBCHEM_COORDINATE_TYPE>
2
5
10

$$$$
