11882035
  -OEChem-12032416123D

 74 77  0     1  0  0  0  0  0999 V2000
    2.4897    0.8219    1.1899 O   0  0  0  0  0  0  0  0  0  0  0  0
    5.5722    0.4651    0.7148 O   0  0  0  0  0  0  0  0  0  0  0  0
   -0.6772   -2.5230   -1.8630 O   0  0  0  0  0  0  0  0  0  0  0  0
    2.8450    4.5100   -0.2711 O   0  0  0  0  0  0  0  0  0  0  0  0
   -6.8250   -2.6550    0.2697 O   0  0  0  0  0  0  0  0  0  0  0  0
    3.9360   -0.9192   -0.1670 N   0  0  0  0  0  0  0  0  0  0  0  0
    0.8966   -1.8285   -0.3184 N   0  0  0  0  0  0  0  0  0  0  0  0
    1.8158    1.9981   -0.7025 N   0  0  0  0  0  0  0  0  0  0  0  0
   -1.3090   -1.9195    0.3158 N   0  0  0  0  0  0  0  0  0  0  0  0
   -2.6287    0.8735   -1.7153 N   0  0  0  0  0  0  0  0  0  0  0  0
    1.4622    4.7249    1.5503 N   0  0  0  0  0  0  0  0  0  0  0  0
    2.0446   -1.9495   -1.1819 C   0  0  1  0  0  0  0  0  0  0  0  0
    3.2746    0.1148   -0.9512 C   0  0  1  0  0  0  0  0  0  0  0  0
    2.3519   -0.6375   -1.9066 C   0  0  0  0  0  0  0  0  0  0  0  0
    3.3210   -2.2297   -0.3938 C   0  0  0  0  0  0  0  0  0  0  0  0
    2.5010    1.0043   -0.0246 C   0  0  0  0  0  0  0  0  0  0  0  0
    5.0910   -0.6559    0.5501 C   0  0  0  0  0  0  0  0  0  0  0  0
    0.9774    2.9721   -0.0418 C   0  0  2  0  0  0  0  0  0  0  0  0
   -0.4067   -2.1305   -0.7307 C   0  0  0  0  0  0  0  0  0  0  0  0
   -0.1509    3.4784   -0.9493 C   0  0  0  0  0  0  0  0  0  0  0  0
    5.7775   -1.8155    1.1536 C   0  0  0  0  0  0  0  0  0  0  0  0
   -1.3072    2.5240   -1.0398 C   0  0  0  0  0  0  0  0  0  0  0  0
    1.8776    4.1239    0.3808 C   0  0  0  0  0  0  0  0  0  0  0  0
    7.0385   -2.1894    0.8779 C   0  0  0  0  0  0  0  0  0  0  0  0
   -2.4518    2.4964   -0.1949 C   0  0  0  0  0  0  0  0  0  0  0  0
   -1.4449    1.5144   -1.9644 C   0  0  0  0  0  0  0  0  0  0  0  0
   -3.2649    1.4518   -0.6401 C   0  0  0  0  0  0  0  0  0  0  0  0
   -2.7107   -2.1078    0.3046 C   0  0  0  0  0  0  0  0  0  0  0  0
    7.8524   -1.3984   -0.1136 C   0  0  0  0  0  0  0  0  0  0  0  0
    7.7703   -3.3613    1.4708 C   0  0  0  0  0  0  0  0  0  0  0  0
   -2.8756    3.2622    0.9094 C   0  0  0  0  0  0  0  0  0  0  0  0
   -4.4853    1.1335   -0.0337 C   0  0  0  0  0  0  0  0  0  0  0  0
   -4.0941    2.9553    1.5258 C   0  0  0  0  0  0  0  0  0  0  0  0
   -4.8850    1.9069    1.0598 C   0  0  0  0  0  0  0  0  0  0  0  0
   -3.4592   -1.8438    1.4516 C   0  0  0  0  0  0  0  0  0  0  0  0
   -3.3449   -2.5563   -0.8540 C   0  0  0  0  0  0  0  0  0  0  0  0
   -4.8418   -2.0283    1.4402 C   0  0  0  0  0  0  0  0  0  0  0  0
   -4.7274   -2.7410   -0.8655 C   0  0  0  0  0  0  0  0  0  0  0  0
   -5.4758   -2.4770    0.2816 C   0  0  0  0  0  0  0  0  0  0  0  0
   -7.5292   -2.3641    1.4762 C   0  0  0  0  0  0  0  0  0  0  0  0
    1.8455   -2.7554   -1.8965 H   0  0  0  0  0  0  0  0  0  0  0  0
    4.0191    0.7198   -1.4812 H   0  0  0  0  0  0  0  0  0  0  0  0
    1.4502   -0.0950   -2.2048 H   0  0  0  0  0  0  0  0  0  0  0  0
    2.9139   -0.8696   -2.8208 H   0  0  0  0  0  0  0  0  0  0  0  0
    4.0281   -2.8162   -0.9916 H   0  0  0  0  0  0  0  0  0  0  0  0
    3.1529   -2.7426    0.5581 H   0  0  0  0  0  0  0  0  0  0  0  0
    1.0302   -1.4474    0.6134 H   0  0  0  0  0  0  0  0  0  0  0  0
    1.9689    2.1059   -1.7013 H   0  0  0  0  0  0  0  0  0  0  0  0
    0.5626    2.5051    0.8610 H   0  0  0  0  0  0  0  0  0  0  0  0
   -0.5265    4.4410   -0.5781 H   0  0  0  0  0  0  0  0  0  0  0  0
    0.2328    3.6819   -1.9582 H   0  0  0  0  0  0  0  0  0  0  0  0
    5.1859   -2.4036    1.8496 H   0  0  0  0  0  0  0  0  0  0  0  0
   -0.9191   -1.5894    1.1950 H   0  0  0  0  0  0  0  0  0  0  0  0
   -0.8085    1.1933   -2.7771 H   0  0  0  0  0  0  0  0  0  0  0  0
   -2.9856    0.0906   -2.2454 H   0  0  0  0  0  0  0  0  0  0  0  0
    8.3646   -2.0803   -0.8023 H   0  0  0  0  0  0  0  0  0  0  0  0
    7.2693   -0.7204   -0.7419 H   0  0  0  0  0  0  0  0  0  0  0  0
    8.6142   -0.8121    0.4105 H   0  0  0  0  0  0  0  0  0  0  0  0
    8.6754   -3.0255    1.9867 H   0  0  0  0  0  0  0  0  0  0  0  0
    7.1473   -3.8928    2.1977 H   0  0  0  0  0  0  0  0  0  0  0  0
    8.0536   -4.0726    0.6885 H   0  0  0  0  0  0  0  0  0  0  0  0
   -2.2706    4.0818    1.2865 H   0  0  0  0  0  0  0  0  0  0  0  0
    1.9667    5.5157    1.9369 H   0  0  0  0  0  0  0  0  0  0  0  0
    0.6461    4.4104    2.0654 H   0  0  0  0  0  0  0  0  0  0  0  0
   -5.1179    0.3428   -0.4175 H   0  0  0  0  0  0  0  0  0  0  0  0
   -4.4267    3.5433    2.3771 H   0  0  0  0  0  0  0  0  0  0  0  0
   -5.8315    1.6903    1.5486 H   0  0  0  0  0  0  0  0  0  0  0  0
   -2.9766   -1.4917    2.3599 H   0  0  0  0  0  0  0  0  0  0  0  0
   -2.8349   -2.7799   -1.7802 H   0  0  0  0  0  0  0  0  0  0  0  0
   -5.3619   -1.8027    2.3647 H   0  0  0  0  0  0  0  0  0  0  0  0
   -5.2173   -3.0891   -1.7708 H   0  0  0  0  0  0  0  0  0  0  0  0
   -7.2215   -3.0274    2.2916 H   0  0  0  0  0  0  0  0  0  0  0  0
   -7.4431   -1.3061    1.7465 H   0  0  0  0  0  0  0  0  0  0  0  0
   -8.5896   -2.5604    1.2870 H   0  0  0  0  0  0  0  0  0  0  0  0
  1 16  2  0  0  0  0
  2 17  2  0  0  0  0
  3 19  2  0  0  0  0
  4 23  2  0  0  0  0
  5 39  1  0  0  0  0
  5 40  1  0  0  0  0
  6 13  1  0  0  0  0
  6 15  1  0  0  0  0
  6 17  1  0  0  0  0
  7 12  1  0  0  0  0
  7 19  1  0  0  0  0
  7 47  1  0  0  0  0
  8 16  1  0  0  0  0
  8 18  1  0  0  0  0
  8 48  1  0  0  0  0
  9 19  1  0  0  0  0
  9 28  1  0  0  0  0
  9 53  1  0  0  0  0
 10 26  1  0  0  0  0
 10 27  1  0  0  0  0
 10 55  1  0  0  0  0
 11 23  1  0  0  0  0
 11 63  1  0  0  0  0
 11 64  1  0  0  0  0
 12 14  1  0  0  0  0
 12 15  1  0  0  0  0
 12 41  1  0  0  0  0
 13 14  1  0  0  0  0
 13 16  1  0  0  0  0
 13 42  1  0  0  0  0
 14 43  1  0  0  0  0
 14 44  1  0  0  0  0
 15 45  1  0  0  0  0
 15 46  1  0  0  0  0
 17 21  1  0  0  0  0
 18 20  1  0  0  0  0
 18 23  1  0  0  0  0
 18 49  1  0  0  0  0
 20 22  1  0  0  0  0
 20 50  1  0  0  0  0
 20 51  1  0  0  0  0
 21 24  2  0  0  0  0
 21 52  1  0  0  0  0
 22 25  1  0  0  0  0
 22 26  2  0  0  0  0
 24 29  1  0  0  0  0
 24 30  1  0  0  0  0
 25 27  1  0  0  0  0
 25 31  2  0  0  0  0
 26 54  1  0  0  0  0
 27 32  2  0  0  0  0
 28 35  2  0  0  0  0
 28 36  1  0  0  0  0
 29 56  1  0  0  0  0
 29 57  1  0  0  0  0
 29 58  1  0  0  0  0
 30 59  1  0  0  0  0
 30 60  1  0  0  0  0
 30 61  1  0  0  0  0
 31 33  1  0  0  0  0
 31 62  1  0  0  0  0
 32 34  1  0  0  0  0
 32 65  1  0  0  0  0
 33 34  2  0  0  0  0
 33 66  1  0  0  0  0
 34 67  1  0  0  0  0
 35 37  1  0  0  0  0
 35 68  1  0  0  0  0
 36 38  2  0  0  0  0
 36 69  1  0  0  0  0
 37 39  2  0  0  0  0
 37 70  1  0  0  0  0
 38 39  1  0  0  0  0
 38 71  1  0  0  0  0
 40 72  1  0  0  0  0
 40 73  1  0  0  0  0
 40 74  1  0  0  0  0
M  END
> <PUBCHEM_COMPOUND_CID>
11882035

> <PUBCHEM_CONFORMER_RMSD>
1.2

> <PUBCHEM_CONFORMER_DIVERSEORDER>
1
146
150
43
143
111
54
81
162
87
45
30
165
145
7
151
153
140
126
131
125
138
159
15
133
139
5
62
82
130
142
85
168
79
44
156
114
69
67
90
39
141
35
154
116
17
33
118
76
106
72
92
94
84
27
61
59
124
86
56
107
163
160
88
148
8
155
105
55
24
38
77
164
152
99
12
66
109
108
74
83
25
93
119
64
144
71
19
80
57
158
97
135
70
120
91
48
128
63
104
2
132
49
78
95
167
9
22
117
41
73
101
4
47
60
149
121
58
110
46
166
157
102
14
75
96
36
112
26
122
147
34
161
32
23
137
28
127
65
18
134
100
31
11
50
53
129
68
123
51
98
13
3
16
113
42
40
29
136
103
20
21
89
37
115
6
52
10

> <PUBCHEM_MMFF94_PARTIAL_CHARGES>
54
1 -0.57
10 0.03
11 -0.8
12 0.3
13 0.36
15 0.3
16 0.57
17 0.62
18 0.36
19 0.69
2 -0.57
20 0.18
21 -0.14
22 -0.18
23 0.57
24 -0.28
26 -0.3
27 -0.15
28 0.12
29 0.14
3 -0.57
30 0.14
31 -0.15
32 -0.15
33 -0.15
34 -0.15
35 -0.15
36 -0.15
37 -0.15
38 -0.15
39 0.08
4 -0.57
40 0.28
47 0.37
48 0.37
5 -0.36
52 0.15
53 0.37
54 0.15
55 0.27
6 -0.66
62 0.15
63 0.37
64 0.37
65 0.15
66 0.15
67 0.15
68 0.15
69 0.15
7 -0.73
70 0.15
71 0.15
8 -0.73
9 -0.55

> <PUBCHEM_EFFECTIVE_ROTOR_COUNT>
14

> <PUBCHEM_PHARMACOPHORE_FEATURES>
16
1 1 acceptor
1 10 cation
1 10 donor
1 11 donor
1 2 acceptor
1 3 acceptor
1 4 acceptor
1 5 acceptor
1 7 donor
1 8 donor
1 9 donor
3 24 29 30 hydrophobe
5 10 22 25 26 27 rings
5 6 12 13 14 15 rings
6 25 27 31 32 33 34 rings
6 28 35 36 37 38 39 rings

> <PUBCHEM_HEAVY_ATOM_COUNT>
40

> <PUBCHEM_ATOM_DEF_STEREO_COUNT>
3

> <PUBCHEM_ATOM_UDEF_STEREO_COUNT>
0

> <PUBCHEM_BOND_DEF_STEREO_COUNT>
0

> <PUBCHEM_BOND_UDEF_STEREO_COUNT>
0

> <PUBCHEM_ISOTOPIC_ATOM_COUNT>
0

> <PUBCHEM_COMPONENT_COUNT>
1

> <PUBCHEM_CACTVS_TAUTO_COUNT>
12

> <PUBCHEM_CONFORMER_ID>
00B54E3300000001

> <PUBCHEM_MMFF94_ENERGY>
105.1327

> <PUBCHEM_FEATURE_SELFOVERLAP>
81.343

> <PUBCHEM_SHAPE_FINGERPRINT>
10006869 2 18199190779342722045
10675989 125 15679130190294034063
11136131 41 17976249459667839008
11456790 92 18260561030539160587
11828532 37 17605566659246978307
12107698 1 18410574028312582195
12166972 35 17240765133415908575
12677640 9 18270968938978336625
13560911 43 18340779233504879051
14395042 24 18338529560744198553
14725015 67 18335136514546365291
14856354 85 18269548343926139124
19301679 30 18338516314860361610
20764821 26 18410023134205552309
21033648 29 17703209755597597074
21133410 90 17346308306822156033
21796203 349 18194427557474798992
392239 28 18337115566092143053
469060 322 17240486892966004303
513532 50 17554918798378728381

> <PUBCHEM_SHAPE_MULTIPOLES>
763.95
17.16
6.1
1.63
16.08
5.26
-0.16
-18.99
8.55
-2.13
1.2
-0.43
-0.1
-0.63

> <PUBCHEM_SHAPE_SELFOVERLAP>
1635.098

> <PUBCHEM_SHAPE_VOLUME>
423.4

> <PUBCHEM_COORDINATE_TYPE>
2
5
10

$$$$
