75536607
  -OEChem-12032416393D

 40 42  0     1  0  0  0  0  0999 V2000
    6.3631    0.6446   -0.9245 S   0  0  0  0  0  0  0  0  0  0  0  0
    0.3335   -0.9867    0.0986 O   0  0  0  0  0  0  0  0  0  0  0  0
   -0.8300    2.4119    0.0627 O   0  0  0  0  0  0  0  0  0  0  0  0
    3.7701    1.8590   -0.2152 O   0  0  0  0  0  0  0  0  0  0  0  0
   -3.0936    0.2324    0.1079 N   0  0  0  0  0  0  0  0  0  0  0  0
    2.8620    0.0779    0.9621 N   0  0  0  0  0  0  0  0  0  0  0  0
   -5.9081   -1.1833    0.4864 N   0  0  0  0  0  0  0  0  0  0  0  0
   -6.3437    0.4921   -0.9048 N   0  0  0  0  0  0  0  0  0  0  0  0
   -1.7036    0.1633   -0.3127 C   0  0  1  0  0  0  0  0  0  0  0  0
   -0.7799    1.0635    0.4868 C   0  0  1  0  0  0  0  0  0  0  0  0
    0.5728    0.4271    0.1971 C   0  0  1  0  0  0  0  0  0  0  0  0
   -1.0789   -1.2007   -0.0695 C   0  0  0  0  0  0  0  0  0  0  0  0
    1.6072    0.6988    1.2748 C   0  0  0  0  0  0  0  0  0  0  0  0
   -3.9734   -0.3732   -0.8846 C   0  0  0  0  0  0  0  0  0  0  0  0
   -5.4164   -0.3256   -0.4580 C   0  0  0  0  0  0  0  0  0  0  0  0
    3.8580    0.7181    0.2308 C   0  0  0  0  0  0  0  0  0  0  0  0
    5.0894   -0.0707   -0.0312 C   0  0  0  0  0  0  0  0  0  0  0  0
   -7.2332   -0.8940    0.6524 C   0  0  0  0  0  0  0  0  0  0  0  0
   -7.4787    0.1429   -0.2165 C   0  0  0  0  0  0  0  0  0  0  0  0
    5.3871   -1.3600    0.3518 C   0  0  0  0  0  0  0  0  0  0  0  0
    6.6782   -1.7658   -0.0938 C   0  0  0  0  0  0  0  0  0  0  0  0
    7.3178   -0.7714   -0.8006 C   0  0  0  0  0  0  0  0  0  0  0  0
   -1.6140    0.4400   -1.3729 H   0  0  0  0  0  0  0  0  0  0  0  0
   -1.0162    1.0206    1.5573 H   0  0  0  0  0  0  0  0  0  0  0  0
    0.9590    0.7614   -0.7748 H   0  0  0  0  0  0  0  0  0  0  0  0
   -1.4460   -1.6691    0.8511 H   0  0  0  0  0  0  0  0  0  0  0  0
   -1.2436   -1.8951   -0.8989 H   0  0  0  0  0  0  0  0  0  0  0  0
    1.2854    0.2753    2.2326 H   0  0  0  0  0  0  0  0  0  0  0  0
    1.7567    1.7761    1.4045 H   0  0  0  0  0  0  0  0  0  0  0  0
   -3.3572    1.2106    0.2298 H   0  0  0  0  0  0  0  0  0  0  0  0
   -3.7026   -1.4219   -1.0578 H   0  0  0  0  0  0  0  0  0  0  0  0
   -3.8850    0.1512   -1.8443 H   0  0  0  0  0  0  0  0  0  0  0  0
   -0.6208    2.4419   -0.8863 H   0  0  0  0  0  0  0  0  0  0  0  0
    2.9988   -0.8729    1.2875 H   0  0  0  0  0  0  0  0  0  0  0  0
   -5.3879   -1.9006    0.9742 H   0  0  0  0  0  0  0  0  0  0  0  0
   -7.8571   -1.4342    1.3496 H   0  0  0  0  0  0  0  0  0  0  0  0
   -8.4149    0.6559   -0.3815 H   0  0  0  0  0  0  0  0  0  0  0  0
    4.7300   -2.0021    0.9233 H   0  0  0  0  0  0  0  0  0  0  0  0
    7.1156   -2.7377    0.0942 H   0  0  0  0  0  0  0  0  0  0  0  0
    8.3001   -0.8088   -1.2500 H   0  0  0  0  0  0  0  0  0  0  0  0
  1 17  1  0  0  0  0
  1 22  1  0  0  0  0
  2 11  1  0  0  0  0
  2 12  1  0  0  0  0
  3 10  1  0  0  0  0
  3 33  1  0  0  0  0
  4 16  2  0  0  0  0
  5  9  1  0  0  0  0
  5 14  1  0  0  0  0
  5 30  1  0  0  0  0
  6 13  1  0  0  0  0
  6 16  1  0  0  0  0
  6 34  1  0  0  0  0
  7 15  1  0  0  0  0
  7 18  1  0  0  0  0
  7 35  1  0  0  0  0
  8 15  2  0  0  0  0
  8 19  1  0  0  0  0
  9 10  1  0  0  0  0
  9 12  1  0  0  0  0
  9 23  1  0  0  0  0
 10 11  1  0  0  0  0
 10 24  1  0  0  0  0
 11 13  1  0  0  0  0
 11 25  1  0  0  0  0
 12 26  1  0  0  0  0
 12 27  1  0  0  0  0
 13 28  1  0  0  0  0
 13 29  1  0  0  0  0
 14 15  1  0  0  0  0
 14 31  1  0  0  0  0
 14 32  1  0  0  0  0
 16 17  1  0  0  0  0
 17 20  2  0  0  0  0
 18 19  2  0  0  0  0
 18 36  1  0  0  0  0
 19 37  1  0  0  0  0
 20 21  1  0  0  0  0
 20 38  1  0  0  0  0
 21 22  2  0  0  0  0
 21 39  1  0  0  0  0
 22 40  1  0  0  0  0
M  END
> <PUBCHEM_COMPOUND_CID>
75536607

> <PUBCHEM_CONFORMER_RMSD>
0.8

> <PUBCHEM_CONFORMER_DIVERSEORDER>
1
13
50
149
164
81
87
18
136
101
96
137
37
183
154
40
46
90
5
167
99
97
116
92
133
171
147
69
106
67
64
134
117
26
180
139
54
155
41
42
6
31
103
123
135
174
176
8
119
91
178
120
179
19
141
94
11
22
182
48
43
146
124
68
108
165
113
86
138
38
128
122
60
151
7
102
76
168
45
142
161
12
55
112
169
59
109
82
181
56
158
115
98
111
47
177
66
84
23
114
118
85
157
140
83
144
150
2
160
163
72
10
70
27
100
63
75
33
51
3
52
173
73
35
49
28
36
17
78
16
175
74
153
25
162
53
126
156
71
79
166
148
88
129
93
130
32
30
39
58
62
104
4
172
57
80
77
110
34
15
127
145
44
159
132
61
20
143
89
121
65
95
170
24
125
14
29
105
21
9
131
152
107

> <PUBCHEM_MMFF94_PARTIAL_CHARGES>
31
1 -0.08
10 0.28
11 0.28
12 0.28
13 0.3
14 0.45
15 0.01
16 0.71
17 -0.05
18 -0.3
19 0.08
2 -0.56
20 -0.15
21 -0.15
22 -0.11
3 -0.68
30 0.36
33 0.4
34 0.37
35 0.27
36 0.15
37 0.15
38 0.15
39 0.15
4 -0.57
40 0.15
5 -0.9
6 -0.73
7 0.03
8 -0.57
9 0.27

> <PUBCHEM_EFFECTIVE_ROTOR_COUNT>
8

> <PUBCHEM_PHARMACOPHORE_FEATURES>
12
1 2 acceptor
1 3 acceptor
1 3 donor
1 4 acceptor
1 5 cation
1 5 donor
1 6 donor
1 7 donor
3 7 8 15 cation
5 1 17 20 21 22 rings
5 2 9 10 11 12 rings
5 7 8 15 18 19 rings

> <PUBCHEM_HEAVY_ATOM_COUNT>
22

> <PUBCHEM_ATOM_DEF_STEREO_COUNT>
3

> <PUBCHEM_ATOM_UDEF_STEREO_COUNT>
0

> <PUBCHEM_BOND_DEF_STEREO_COUNT>
0

> <PUBCHEM_BOND_UDEF_STEREO_COUNT>
0

> <PUBCHEM_ISOTOPIC_ATOM_COUNT>
0

> <PUBCHEM_COMPONENT_COUNT>
1

> <PUBCHEM_CACTVS_TAUTO_COUNT>
2

> <PUBCHEM_CONFORMER_ID>
048098DF00000001

> <PUBCHEM_MMFF94_ENERGY>
28.2174

> <PUBCHEM_FEATURE_SELFOVERLAP>
60.899

> <PUBCHEM_SHAPE_FINGERPRINT>
10299344 5 18342740719362214599
106641 1 9079106774437981789
11524674 6 16487253287919270927
11638347 137 11887960951659369444
11724838 91 7997965769795917154
12166972 35 18041000652287951884
13533116 47 18343862243198659544
13673619 4 17989204832962526528
13685833 64 17989205941316724410
14123256 10 13767926818876848159
14251752 14 18342454824848267261
14251764 18 17418096529106344520
14251764 46 18040151820615332811
14347424 109 15410888574910452722
14429380 56 11169919423815325986
14933364 13 18040714770906293029
15131766 46 13684291449630800258
15183329 4 17846780710738659543
15849732 13 17821730550160663423
18006028 8 17489587865739128465
21150785 3 17095244717865728694
21267235 1 18411703179308876313
21781051 124 18338811103317434790
221357 26 18187363221357589644
22224240 67 12035449454046204224
22956985 138 17056419708892316766
23035841 295 18272931631161787023
23424782 7 17241052101591967363
23522609 53 17914925172969478984
23559900 14 18271236252708757320
246663 6 18344150288715625790
28498 318 17989205919351349111
300161 21 8574711303884552968
3004659 81 18409727366215802016
328311 84 18409169922025624547
33532 11 18343300362011898831
34797466 226 16805326595718500486
465052 167 18273216421673720406
5207 217 13840266992035646537
5758199 1 13984660335284325281
59682541 35 10159688097517700606
59755656 215 18410855434438070647
59755656 520 18186795903169558163
6438161 24 18187357693993194770

> <PUBCHEM_SHAPE_MULTIPOLES>
419.07
23.06
1.55
0.93
10.35
0.29
-0.02
-7.47
4.06
-1.35
-0.07
-0.15
0.05
0.23

> <PUBCHEM_SHAPE_SELFOVERLAP>
872.155

> <PUBCHEM_SHAPE_VOLUME>
240.1

> <PUBCHEM_COORDINATE_TYPE>
2
5
10

$$$$
