51137874
  -OEChem-12032416213D

 47 50  0     1  0  0  0  0  0999 V2000
   -7.6024    0.1386    1.6644 F   0  0  0  0  0  0  0  0  0  0  0  0
   -7.9873   -1.0550   -0.1119 F   0  0  0  0  0  0  0  0  0  0  0  0
   -8.1389    1.1124   -0.1978 F   0  0  0  0  0  0  0  0  0  0  0  0
    6.3622    3.0054   -0.1194 O   0  0  0  0  0  0  0  0  0  0  0  0
   -0.9731   -0.4882   -0.2958 N   0  0  1  0  0  0  0  0  0  0  0  0
    3.5331   -2.0539    0.1565 N   0  0  0  0  0  0  0  0  0  0  0  0
    3.1853    0.1411    0.1420 N   0  0  0  0  0  0  0  0  0  0  0  0
    4.0991    2.6743    0.0442 N   0  0  0  0  0  0  0  0  0  0  0  0
    1.1347   -1.3274    0.2981 C   0  0  1  0  0  0  0  0  0  0  0  0
    0.4454   -0.7398    1.5420 C   0  0  0  0  0  0  0  0  0  0  0  0
    0.3363   -0.7701   -0.8881 C   0  0  0  0  0  0  0  0  0  0  0  0
   -0.6771    0.1327    0.9953 C   0  0  0  0  0  0  0  0  0  0  0  0
    2.6153   -1.0416    0.1981 C   0  0  0  0  0  0  0  0  0  0  0  0
   -1.7948    0.3622   -1.1442 C   0  0  0  0  0  0  0  0  0  0  0  0
   -3.2504    0.2934   -0.7652 C   0  0  0  0  0  0  0  0  0  0  0  0
    4.7784   -1.4867    0.0675 C   0  0  0  0  0  0  0  0  0  0  0  0
    4.5346   -0.1162    0.0602 C   0  0  0  0  0  0  0  0  0  0  0  0
   -4.0137   -0.8160   -1.1288 C   0  0  0  0  0  0  0  0  0  0  0  0
   -3.8354    1.3383   -0.0499 C   0  0  0  0  0  0  0  0  0  0  0  0
    5.6201    0.7722   -0.0237 C   0  0  0  0  0  0  0  0  0  0  0  0
    6.0581   -2.0380   -0.0049 C   0  0  0  0  0  0  0  0  0  0  0  0
    6.9139    0.2411   -0.0974 C   0  0  0  0  0  0  0  0  0  0  0  0
    7.1268   -1.1393   -0.0881 C   0  0  0  0  0  0  0  0  0  0  0  0
   -5.3619   -0.8805   -0.7775 C   0  0  0  0  0  0  0  0  0  0  0  0
   -5.1836    1.2739    0.3016 C   0  0  0  0  0  0  0  0  0  0  0  0
   -5.9469    0.1646   -0.0622 C   0  0  0  0  0  0  0  0  0  0  0  0
    5.4098    2.2082   -0.0314 C   0  0  0  0  0  0  0  0  0  0  0  0
   -7.3877    0.0940    0.3162 C   0  0  0  0  0  0  0  0  0  0  0  0
    0.9918   -2.4174    0.3290 H   0  0  0  0  0  0  0  0  0  0  0  0
    1.1217   -0.1639    2.1826 H   0  0  0  0  0  0  0  0  0  0  0  0
    0.0287   -1.5553    2.1463 H   0  0  0  0  0  0  0  0  0  0  0  0
    0.7990    0.1419   -1.2887 H   0  0  0  0  0  0  0  0  0  0  0  0
    0.2658   -1.5032   -1.6990 H   0  0  0  0  0  0  0  0  0  0  0  0
   -1.5381    0.1325    1.6709 H   0  0  0  0  0  0  0  0  0  0  0  0
   -0.3191    1.1642    0.8823 H   0  0  0  0  0  0  0  0  0  0  0  0
   -1.7243    0.0252   -2.1883 H   0  0  0  0  0  0  0  0  0  0  0  0
   -1.4403    1.4019   -1.1553 H   0  0  0  0  0  0  0  0  0  0  0  0
    3.3335   -3.0450    0.1860 H   0  0  0  0  0  0  0  0  0  0  0  0
   -3.5691   -1.6365   -1.6859 H   0  0  0  0  0  0  0  0  0  0  0  0
   -3.2514    2.2074    0.2412 H   0  0  0  0  0  0  0  0  0  0  0  0
    6.2208   -3.1097    0.0026 H   0  0  0  0  0  0  0  0  0  0  0  0
    7.7805    0.8952   -0.1629 H   0  0  0  0  0  0  0  0  0  0  0  0
    8.1421   -1.5239   -0.1464 H   0  0  0  0  0  0  0  0  0  0  0  0
   -5.9387   -1.7535   -1.0699 H   0  0  0  0  0  0  0  0  0  0  0  0
   -5.6304    2.0924    0.8597 H   0  0  0  0  0  0  0  0  0  0  0  0
    3.9116    3.6716    0.0351 H   0  0  0  0  0  0  0  0  0  0  0  0
    3.2867    2.0716    0.1107 H   0  0  0  0  0  0  0  0  0  0  0  0
  1 28  1  0  0  0  0
  2 28  1  0  0  0  0
  3 28  1  0  0  0  0
  4 27  2  0  0  0  0
  5 11  1  0  0  0  0
  5 12  1  0  0  0  0
  5 14  1  0  0  0  0
  6 13  1  0  0  0  0
  6 16  1  0  0  0  0
  6 38  1  0  0  0  0
  7 13  2  0  0  0  0
  7 17  1  0  0  0  0
  8 27  1  0  0  0  0
  8 46  1  0  0  0  0
  8 47  1  0  0  0  0
  9 10  1  0  0  0  0
  9 11  1  0  0  0  0
  9 13  1  0  0  0  0
  9 29  1  0  0  0  0
 10 12  1  0  0  0  0
 10 30  1  0  0  0  0
 10 31  1  0  0  0  0
 11 32  1  0  0  0  0
 11 33  1  0  0  0  0
 12 34  1  0  0  0  0
 12 35  1  0  0  0  0
 14 15  1  0  0  0  0
 14 36  1  0  0  0  0
 14 37  1  0  0  0  0
 15 18  2  0  0  0  0
 15 19  1  0  0  0  0
 16 17  1  0  0  0  0
 16 21  2  0  0  0  0
 17 20  2  0  0  0  0
 18 24  1  0  0  0  0
 18 39  1  0  0  0  0
 19 25  2  0  0  0  0
 19 40  1  0  0  0  0
 20 22  1  0  0  0  0
 20 27  1  0  0  0  0
 21 23  1  0  0  0  0
 21 41  1  0  0  0  0
 22 23  2  0  0  0  0
 22 42  1  0  0  0  0
 23 43  1  0  0  0  0
 24 26  2  0  0  0  0
 24 44  1  0  0  0  0
 25 26  1  0  0  0  0
 25 45  1  0  0  0  0
 26 28  1  0  0  0  0
M  END
> <PUBCHEM_COMPOUND_CID>
51137874

> <PUBCHEM_CONFORMER_RMSD>
0.8

> <PUBCHEM_CONFORMER_DIVERSEORDER>
1
86
42
69
98
116
68
61
111
113
90
50
83
77
22
114
51
84
24
96
9
38
73
26
117
100
60
99
70
63
27
10
14
21
19
67
107
122
13
11
104
35
54
81
66
32
75
44
64
109
45
12
2
30
87
62
31
120
20
79
34
5
85
15
101
58
47
65
41
28
25
72
94
88
17
74
106
121
76
89
6
16
118
115
82
112
57
8
7
40
80
23
95
92
3
110
18
119
46
71
33
105
91
103
43
55
78
108
56
93
53
37
29
97
39
4
36
102
59
49
52
48

> <PUBCHEM_MMFF94_PARTIAL_CHARGES>
37
1 -0.34
11 0.27
12 0.27
13 0.01
14 0.41
15 -0.14
16 -0.15
17 0.23
18 -0.15
19 -0.15
2 -0.34
20 0.09
21 -0.15
22 -0.15
23 -0.15
24 -0.15
25 -0.15
26 -0.14
27 0.54
28 1.16
3 -0.34
38 0.27
39 0.15
4 -0.57
40 0.15
41 0.15
42 0.15
43 0.15
44 0.15
45 0.15
46 0.37
47 0.37
5 -0.81
6 0.03
7 -0.57
8 -0.8
9 0.18

> <PUBCHEM_EFFECTIVE_ROTOR_COUNT>
6

> <PUBCHEM_PHARMACOPHORE_FEATURES>
9
1 4 acceptor
1 5 cation
1 6 donor
1 8 donor
3 6 7 13 cation
5 5 9 10 11 12 rings
5 6 7 13 16 17 rings
6 15 18 19 24 25 26 rings
6 16 17 20 21 22 23 rings

> <PUBCHEM_HEAVY_ATOM_COUNT>
28

> <PUBCHEM_ATOM_DEF_STEREO_COUNT>
1

> <PUBCHEM_ATOM_UDEF_STEREO_COUNT>
0

> <PUBCHEM_BOND_DEF_STEREO_COUNT>
0

> <PUBCHEM_BOND_UDEF_STEREO_COUNT>
0

> <PUBCHEM_ISOTOPIC_ATOM_COUNT>
0

> <PUBCHEM_COMPONENT_COUNT>
1

> <PUBCHEM_CACTVS_TAUTO_COUNT>
12

> <PUBCHEM_CONFORMER_ID>
030C4D5200000001

> <PUBCHEM_MMFF94_ENERGY>
58.6108

> <PUBCHEM_FEATURE_SELFOVERLAP>
45.779

> <PUBCHEM_SHAPE_FINGERPRINT>
10 15 15430040980575593390
10299344 5 18131349713586745071
10411042 1 18049721816566493962
10595046 47 18341890800899755966
10638233 991 18272088309521564921
10673678 19 18201159957444468676
11315181 36 18411982439316845233
11456790 92 18260822671230161320
11646440 116 17385445414427767716
11796584 16 13254502180933043118
12166972 35 18334577932511802868
12236239 1 18060134332575897526
12717326 120 15576140873371572521
12730499 353 18113335285128757594
12838862 33 16298375891266980075
13533116 47 17096075893212279762
13885169 127 9871754585527278563
14170010 4 18113057151362030420
14251764 18 17918270953056720279
14294032 229 16485873314462777864
14849402 71 18339645654191710137
14856354 85 17418093231030215215
14933364 13 18410573976661782477
150020 25 18040716961656248483
15003188 100 18260831505972314804
15183329 4 15339123441853221611
15419008 47 17095518491781871629
15461852 350 13840274684585974043
15475509 8 14117807920210247307
1577012 14 18201995568574169548
15840311 113 18409167722844133557
16120349 18 18412258446256940757
17844677 252 18339645542463797740
20157964 124 18411138039755622762
20554085 129 16153420653735577456
20567600 75 11167947947915988771
21033648 29 16950551169456851340
21315763 28 18411418375753616682
21521721 280 18407761447567166355
21792961 116 17274539810963884703
221357 26 18408600336927953820
22224240 67 17240483606704040955
23035841 295 17988922254374152195
23424782 7 18187087290782660011
23516275 137 17916042186990386535
23522609 53 17845951700857934953
23536379 177 18343580711917797622
23569943 247 17171794748911831506
249057 3 18342737416949271118
255183 451 17843693154178629358
2747138 104 17458070365314161437
3004659 81 18060698369551858918
34797466 226 18273501164957097806
397830 11 17750527336918610049
4073 2 18187648058660768418
4325135 7 18413107251605185159
44317340 157 18272645770954953952
444735 82 18187086160789952500
445580 126 18341039805651174648
4625314 4 18410291398580174783
5283156 175 17203329975510495622
53794403 172 17750241477408655100
5758199 1 17749109967936432563
59682541 35 17458631137497325345

> <PUBCHEM_SHAPE_MULTIPOLES>
528.61
24.69
2.11
0.99
22.04
1.22
-0.15
3.2
-1
-4.49
0.04
1.06
-0.12
-0.5

> <PUBCHEM_SHAPE_SELFOVERLAP>
1164.132

> <PUBCHEM_SHAPE_VOLUME>
288.9

> <PUBCHEM_COORDINATE_TYPE>
2
5
10

$$$$
