51137066
  -OEChem-12032416243D

 35 37  0     1  0  0  0  0  0999 V2000
    1.4212    1.1261    0.7676 O   0  0  0  0  0  0  0  0  0  0  0  0
   -3.1701    0.2448    0.0915 N   0  0  1  0  0  0  0  0  0  0  0  0
    0.9425   -0.5339   -0.6995 N   0  0  0  0  0  0  0  0  0  0  0  0
   -0.9350    0.9503    0.1685 C   0  0  2  0  0  0  0  0  0  0  0  0
   -1.8919   -0.1233    0.7041 C   0  0  0  0  0  0  0  0  0  0  0  0
   -1.5804    1.4275   -1.1441 C   0  0  0  0  0  0  0  0  0  0  0  0
   -2.8408    0.5851   -1.2926 C   0  0  0  0  0  0  0  0  0  0  0  0
   -4.1561   -0.8222    0.1802 C   0  0  0  0  0  0  0  0  0  0  0  0
    0.4874    0.4578    0.0344 C   0  0  0  0  0  0  0  0  0  0  0  0
   -4.4197   -1.1492    1.6467 C   0  0  0  0  0  0  0  0  0  0  0  0
   -5.4433   -0.4135   -0.5303 C   0  0  0  0  0  0  0  0  0  0  0  0
    2.5877    0.4857    0.4615 C   0  0  0  0  0  0  0  0  0  0  0  0
    2.2909   -0.5293   -0.4363 C   0  0  0  0  0  0  0  0  0  0  0  0
    3.8598    0.7703    0.9422 C   0  0  0  0  0  0  0  0  0  0  0  0
    3.3314   -1.3418   -0.9089 C   0  0  0  0  0  0  0  0  0  0  0  0
    4.8864   -0.0495    0.4612 C   0  0  0  0  0  0  0  0  0  0  0  0
    4.6301   -1.0850   -0.4460 C   0  0  0  0  0  0  0  0  0  0  0  0
   -0.9369    1.8004    0.8658 H   0  0  0  0  0  0  0  0  0  0  0  0
   -1.9211   -0.0822    1.7982 H   0  0  0  0  0  0  0  0  0  0  0  0
   -1.5700   -1.1288    0.4017 H   0  0  0  0  0  0  0  0  0  0  0  0
   -1.8441    2.4889   -1.0546 H   0  0  0  0  0  0  0  0  0  0  0  0
   -0.9247    1.3203   -2.0147 H   0  0  0  0  0  0  0  0  0  0  0  0
   -2.6218   -0.3067   -1.8938 H   0  0  0  0  0  0  0  0  0  0  0  0
   -3.6234    1.1660   -1.7904 H   0  0  0  0  0  0  0  0  0  0  0  0
   -3.7856   -1.7360   -0.3046 H   0  0  0  0  0  0  0  0  0  0  0  0
   -5.2459   -1.8640    1.7361 H   0  0  0  0  0  0  0  0  0  0  0  0
   -3.5552   -1.6130    2.1325 H   0  0  0  0  0  0  0  0  0  0  0  0
   -4.6989   -0.2554    2.2166 H   0  0  0  0  0  0  0  0  0  0  0  0
   -6.2274   -1.1606   -0.3614 H   0  0  0  0  0  0  0  0  0  0  0  0
   -5.3132   -0.3387   -1.6147 H   0  0  0  0  0  0  0  0  0  0  0  0
   -5.8211    0.5465   -0.1601 H   0  0  0  0  0  0  0  0  0  0  0  0
    4.0475    1.5736    1.6436 H   0  0  0  0  0  0  0  0  0  0  0  0
    3.1443   -2.1469   -1.6117 H   0  0  0  0  0  0  0  0  0  0  0  0
    5.9057    0.1215    0.7992 H   0  0  0  0  0  0  0  0  0  0  0  0
    5.4529   -1.7021   -0.7986 H   0  0  0  0  0  0  0  0  0  0  0  0
  1  9  1  0  0  0  0
  1 12  1  0  0  0  0
  2  5  1  0  0  0  0
  2  7  1  0  0  0  0
  2  8  1  0  0  0  0
  3  9  2  0  0  0  0
  3 13  1  0  0  0  0
  4  5  1  0  0  0  0
  4  6  1  0  0  0  0
  4  9  1  0  0  0  0
  4 18  1  0  0  0  0
  5 19  1  0  0  0  0
  5 20  1  0  0  0  0
  6  7  1  0  0  0  0
  6 21  1  0  0  0  0
  6 22  1  0  0  0  0
  7 23  1  0  0  0  0
  7 24  1  0  0  0  0
  8 10  1  0  0  0  0
  8 11  1  0  0  0  0
  8 25  1  0  0  0  0
 10 26  1  0  0  0  0
 10 27  1  0  0  0  0
 10 28  1  0  0  0  0
 11 29  1  0  0  0  0
 11 30  1  0  0  0  0
 11 31  1  0  0  0  0
 12 13  1  0  0  0  0
 12 14  2  0  0  0  0
 13 15  2  0  0  0  0
 14 16  1  0  0  0  0
 14 32  1  0  0  0  0
 15 17  1  0  0  0  0
 15 33  1  0  0  0  0
 16 17  2  0  0  0  0
 16 34  1  0  0  0  0
 17 35  1  0  0  0  0
M  END
> <PUBCHEM_COMPOUND_CID>
51137066

> <PUBCHEM_CONFORMER_RMSD>
0.6

> <PUBCHEM_CONFORMER_DIVERSEORDER>
1
12
22
18
21
15
16
17
5
19
14
9
10
20
13
2
11
7
6
3
8
4

> <PUBCHEM_MMFF94_PARTIAL_CHARGES>
18
1 -0.28
12 0.14
13 0.23
14 -0.15
15 -0.15
16 -0.15
17 -0.15
2 -0.81
3 -0.57
32 0.15
33 0.15
34 0.15
35 0.15
4 0.18
5 0.27
7 0.27
8 0.27
9 0.3

> <PUBCHEM_EFFECTIVE_ROTOR_COUNT>
3

> <PUBCHEM_PHARMACOPHORE_FEATURES>
5
1 2 cation
3 8 10 11 hydrophobe
5 1 3 9 12 13 rings
5 2 4 5 6 7 rings
6 12 13 14 15 16 17 rings

> <PUBCHEM_HEAVY_ATOM_COUNT>
17

> <PUBCHEM_ATOM_DEF_STEREO_COUNT>
1

> <PUBCHEM_ATOM_UDEF_STEREO_COUNT>
0

> <PUBCHEM_BOND_DEF_STEREO_COUNT>
0

> <PUBCHEM_BOND_UDEF_STEREO_COUNT>
0

> <PUBCHEM_ISOTOPIC_ATOM_COUNT>
0

> <PUBCHEM_COMPONENT_COUNT>
1

> <PUBCHEM_CACTVS_TAUTO_COUNT>
1

> <PUBCHEM_CONFORMER_ID>
030C4A2A00000001

> <PUBCHEM_MMFF94_ENERGY>
25.7765

> <PUBCHEM_FEATURE_SELFOVERLAP>
25.49

> <PUBCHEM_SHAPE_FINGERPRINT>
10912923 1 16343981429192635251
11046707 91 17748829635415526803
11401426 45 13334739042133558748
11543360 7 16877951537634794516
11552529 35 17059203929314496735
12032990 46 18342459205936416220
12107183 9 16052692031494280715
12236239 1 16200431381656456929
12251169 10 15410894072157218097
12596602 18 16200151014855662027
13544653 18 18341898506503673001
13675066 3 16630527293532901400
13760787 5 17346590876973354108
14251718 22 17386010589506258486
14252887 29 17846504703645680878
14350574 20 18201444649499312430
14386348 63 18408323293792964043
14993402 34 15285360617478930512
15375462 189 16774072960397551634
15961568 22 17313386798699905100
17844677 252 18273500065277164856
17870717 6 17676775292673506287
1813 80 17631748109577981316
18785283 64 18197209476548805008
19050596 39 16200145495795806038
19141452 34 18342176713364024191
19862831 5 15213019357994086665
1986462 14 17967531233647995492
200 152 17917986170712390557
20279233 1 18335421261591771218
20300324 65 16588026796832180373
20374829 77 17894910750398020563
20432913 95 18131354111353590315
20645477 70 17916578735403981086
20871999 31 17530686480988208125
21065198 48 16559039268061712619
21065201 7 17895749595896655104
21079973 296 18259987097536314867
21267235 1 17775571910356382846
21503847 285 13830125118440669298
23402539 116 16805317799514558839
23557571 272 18186795842591298853
23559900 14 17386006225445322644
26918003 58 18202563986353215779
2871803 45 18261391122224278795
29717793 49 15864066538488619010
314173 85 18260834799990879589
3268164 11 17313094238031891783
33824 294 18272931605460879942
4028521 119 9295296019166880515
42 15 17632861914481819665
474 4 16557038272984707896
5104073 3 17916864591806542050
5352402 22 18130517374246230143
573450 72 16660631926080590872
7495541 125 18261394481426670472

> <PUBCHEM_SHAPE_MULTIPOLES>
334.02
11.36
1.28
1.2
2.43
0.05
-0.01
-3.95
0.05
0.75
0.04
-0.15
-0.1
1.45

> <PUBCHEM_SHAPE_SELFOVERLAP>
717.421

> <PUBCHEM_SHAPE_VOLUME>
187.9

> <PUBCHEM_COORDINATE_TYPE>
2
5
10

$$$$
