38027224
  -OEChem-12032416233D

 70 71  0     1  0  0  0  0  0999 V2000
   -2.0546   -2.4114   -0.6940 O   0  0  0  0  0  0  0  0  0  0  0  0
    3.1500    2.3676    1.6320 O   0  0  0  0  0  0  0  0  0  0  0  0
    3.5634    0.8174   -0.0308 N   0  0  0  0  0  0  0  0  0  0  0  0
   -2.4608   -0.3990   -1.7731 N   0  0  0  0  0  0  0  0  0  0  0  0
    1.6904   -1.1875    1.2007 C   0  0  1  0  0  0  0  0  0  0  0  0
    3.1279   -1.4695    0.6967 C   0  0  1  0  0  0  0  0  0  0  0  0
    0.7201   -2.2592    0.6810 C   0  0  0  0  0  0  0  0  0  0  0  0
    0.6938   -2.3244   -0.8578 C   0  0  2  0  0  0  0  0  0  0  0  0
    1.6255   -1.1268    2.7300 C   0  0  0  0  0  0  0  0  0  0  0  0
    2.0906   -2.3344   -1.4449 C   0  0  0  0  0  0  0  0  0  0  0  0
    3.1679   -1.9619   -0.7310 C   0  0  0  0  0  0  0  0  0  0  0  0
    4.0157   -0.2273    0.8335 C   0  0  0  0  0  0  0  0  0  0  0  0
   -0.1400   -1.1802   -1.4449 C   0  0  0  0  0  0  0  0  0  0  0  0
    0.4305   -0.2920    3.1792 C   0  0  0  0  0  0  0  0  0  0  0  0
    1.5537   -2.5333    3.3156 C   0  0  0  0  0  0  0  0  0  0  0  0
    2.2273   -2.8266   -2.8589 C   0  0  0  0  0  0  0  0  0  0  0  0
   -1.6300   -1.4017   -1.2618 C   0  0  0  0  0  0  0  0  0  0  0  0
    3.1541    2.0662    0.4381 C   0  0  0  0  0  0  0  0  0  0  0  0
    2.7059    3.0525   -0.6609 C   0  0  0  0  0  0  0  0  0  0  0  0
   -3.9172   -0.4637   -1.6767 C   0  0  0  0  0  0  0  0  0  0  0  0
    1.5171    2.4695   -1.4401 C   0  0  0  0  0  0  0  0  0  0  0  0
    2.2640    4.3758   -0.0101 C   0  0  0  0  0  0  0  0  0  0  0  0
    3.8734    3.3426   -1.6164 C   0  0  0  0  0  0  0  0  0  0  0  0
   -1.9359    0.7860   -2.4405 C   0  0  0  0  0  0  0  0  0  0  0  0
   -4.4296    0.2193   -0.4418 C   0  0  0  0  0  0  0  0  0  0  0  0
   -4.5808   -0.5025    0.7423 C   0  0  0  0  0  0  0  0  0  0  0  0
   -4.7542    1.5752   -0.4782 C   0  0  0  0  0  0  0  0  0  0  0  0
   -5.0568    0.1318    1.8899 C   0  0  0  0  0  0  0  0  0  0  0  0
   -5.2301    2.2096    0.6693 C   0  0  0  0  0  0  0  0  0  0  0  0
   -5.3814    1.4878    1.8534 C   0  0  0  0  0  0  0  0  0  0  0  0
    1.3644   -0.2173    0.8084 H   0  0  0  0  0  0  0  0  0  0  0  0
    3.5810   -2.2620    1.3054 H   0  0  0  0  0  0  0  0  0  0  0  0
   -0.2885   -2.0983    1.0736 H   0  0  0  0  0  0  0  0  0  0  0  0
    1.0315   -3.2578    1.0138 H   0  0  0  0  0  0  0  0  0  0  0  0
    0.2263   -3.2829   -1.1239 H   0  0  0  0  0  0  0  0  0  0  0  0
    2.5195   -0.6382    3.1310 H   0  0  0  0  0  0  0  0  0  0  0  0
    4.1524   -2.0339   -1.1892 H   0  0  0  0  0  0  0  0  0  0  0  0
    5.0424   -0.4627    0.5273 H   0  0  0  0  0  0  0  0  0  0  0  0
    4.0735    0.1209    1.8681 H   0  0  0  0  0  0  0  0  0  0  0  0
    0.0369   -1.1270   -2.5246 H   0  0  0  0  0  0  0  0  0  0  0  0
    0.1390   -0.2215   -0.9997 H   0  0  0  0  0  0  0  0  0  0  0  0
   -0.5229   -0.7214    2.8561 H   0  0  0  0  0  0  0  0  0  0  0  0
    0.4944    0.7275    2.7836 H   0  0  0  0  0  0  0  0  0  0  0  0
    0.4045   -0.2189    4.2720 H   0  0  0  0  0  0  0  0  0  0  0  0
    0.5797   -3.0117    3.1684 H   0  0  0  0  0  0  0  0  0  0  0  0
    1.6964   -2.4780    4.4020 H   0  0  0  0  0  0  0  0  0  0  0  0
    2.3407   -3.1908    2.9345 H   0  0  0  0  0  0  0  0  0  0  0  0
    1.7767   -3.8191   -2.9614 H   0  0  0  0  0  0  0  0  0  0  0  0
    3.2759   -2.9114   -3.1642 H   0  0  0  0  0  0  0  0  0  0  0  0
    1.7372   -2.1468   -3.5615 H   0  0  0  0  0  0  0  0  0  0  0  0
    3.5962    0.6533   -1.0319 H   0  0  0  0  0  0  0  0  0  0  0  0
   -4.2204   -1.5180   -1.6573 H   0  0  0  0  0  0  0  0  0  0  0  0
   -4.3692   -0.0386   -2.5810 H   0  0  0  0  0  0  0  0  0  0  0  0
    1.1316    3.1883   -2.1719 H   0  0  0  0  0  0  0  0  0  0  0  0
    1.7916    1.5616   -1.9877 H   0  0  0  0  0  0  0  0  0  0  0  0
    0.6973    2.2071   -0.7618 H   0  0  0  0  0  0  0  0  0  0  0  0
    1.9357    5.1005   -0.7636 H   0  0  0  0  0  0  0  0  0  0  0  0
    3.0831    4.8326    0.5573 H   0  0  0  0  0  0  0  0  0  0  0  0
    1.4315    4.2174    0.6854 H   0  0  0  0  0  0  0  0  0  0  0  0
    4.1760    2.4510   -2.1759 H   0  0  0  0  0  0  0  0  0  0  0  0
    3.6039    4.1118   -2.3489 H   0  0  0  0  0  0  0  0  0  0  0  0
    4.7531    3.6943   -1.0652 H   0  0  0  0  0  0  0  0  0  0  0  0
   -2.5179    0.9761   -3.3478 H   0  0  0  0  0  0  0  0  0  0  0  0
   -0.8911    0.7119   -2.7374 H   0  0  0  0  0  0  0  0  0  0  0  0
   -2.0378    1.6390   -1.7633 H   0  0  0  0  0  0  0  0  0  0  0  0
   -4.3338   -1.5596    0.7859 H   0  0  0  0  0  0  0  0  0  0  0  0
   -4.6429    2.1486   -1.3946 H   0  0  0  0  0  0  0  0  0  0  0  0
   -5.1747   -0.4302    2.8118 H   0  0  0  0  0  0  0  0  0  0  0  0
   -5.4832    3.2654    0.6409 H   0  0  0  0  0  0  0  0  0  0  0  0
   -5.7521    1.9818    2.7469 H   0  0  0  0  0  0  0  0  0  0  0  0
  1 17  2  0  0  0  0
  2 18  2  0  0  0  0
  3 12  1  0  0  0  0
  3 18  1  0  0  0  0
  3 51  1  0  0  0  0
  4 17  1  0  0  0  0
  4 20  1  0  0  0  0
  4 24  1  0  0  0  0
  5  6  1  0  0  0  0
  5  7  1  0  0  0  0
  5  9  1  0  0  0  0
  5 31  1  0  0  0  0
  6 11  1  0  0  0  0
  6 12  1  0  0  0  0
  6 32  1  0  0  0  0
  7  8  1  0  0  0  0
  7 33  1  0  0  0  0
  7 34  1  0  0  0  0
  8 10  1  0  0  0  0
  8 13  1  0  0  0  0
  8 35  1  0  0  0  0
  9 14  1  0  0  0  0
  9 15  1  0  0  0  0
  9 36  1  0  0  0  0
 10 11  2  0  0  0  0
 10 16  1  0  0  0  0
 11 37  1  0  0  0  0
 12 38  1  0  0  0  0
 12 39  1  0  0  0  0
 13 17  1  0  0  0  0
 13 40  1  0  0  0  0
 13 41  1  0  0  0  0
 14 42  1  0  0  0  0
 14 43  1  0  0  0  0
 14 44  1  0  0  0  0
 15 45  1  0  0  0  0
 15 46  1  0  0  0  0
 15 47  1  0  0  0  0
 16 48  1  0  0  0  0
 16 49  1  0  0  0  0
 16 50  1  0  0  0  0
 18 19  1  0  0  0  0
 19 21  1  0  0  0  0
 19 22  1  0  0  0  0
 19 23  1  0  0  0  0
 20 25  1  0  0  0  0
 20 52  1  0  0  0  0
 20 53  1  0  0  0  0
 21 54  1  0  0  0  0
 21 55  1  0  0  0  0
 21 56  1  0  0  0  0
 22 57  1  0  0  0  0
 22 58  1  0  0  0  0
 22 59  1  0  0  0  0
 23 60  1  0  0  0  0
 23 61  1  0  0  0  0
 23 62  1  0  0  0  0
 24 63  1  0  0  0  0
 24 64  1  0  0  0  0
 24 65  1  0  0  0  0
 25 26  2  0  0  0  0
 25 27  1  0  0  0  0
 26 28  1  0  0  0  0
 26 66  1  0  0  0  0
 27 29  2  0  0  0  0
 27 67  1  0  0  0  0
 28 30  2  0  0  0  0
 28 68  1  0  0  0  0
 29 30  1  0  0  0  0
 29 69  1  0  0  0  0
 30 70  1  0  0  0  0
M  END
> <PUBCHEM_COMPOUND_CID>
38027224

> <PUBCHEM_CONFORMER_RMSD>
1.2

> <PUBCHEM_CONFORMER_DIVERSEORDER>
1
91
54
188
135
145
210
57
72
168
114
112
129
171
132
30
10
204
55
67
205
203
11
158
108
184
111
105
32
173
192
199
25
59
147
31
36
107
8
83
209
146
42
155
177
166
200
178
110
123
84
97
66
60
99
87
159
47
27
137
81
176
156
39
90
43
109
127
15
186
52
102
202
164
167
6
18
148
82
12
44
153
22
74
16
160
103
195
169
79
185
140
40
93
106
4
37
117
198
170
175
174
183
34
65
85
68
5
38
201
193
96
58
142
46
41
141
131
181
125
128
94
136
143
130
71
76
45
33
211
154
149
126
190
120
80
208
21
14
144
115
151
122
35
48
104
150
180
121
191
92
152
7
29
24
116
189
77
50
163
172
196
70
28
19
53
95
139
157
73
49
56
17
88
187
206
119
78
3
86
51
69
134
124
9
162
64
61
182
89
133
23
161
13
118
26
207
75
179
165
20
197
98
101
2
194
100
138
62
113
63

> <PUBCHEM_MMFF94_PARTIAL_CHARGES>
29
1 -0.57
10 -0.28
11 -0.29
12 0.3
13 0.06
16 0.14
17 0.57
18 0.57
19 0.06
2 -0.57
20 0.44
24 0.3
25 -0.14
26 -0.15
27 -0.15
28 -0.15
29 -0.15
3 -0.73
30 -0.15
37 0.15
4 -0.66
51 0.37
6 0.14
66 0.15
67 0.15
68 0.15
69 0.15
70 0.15
8 0.14

> <PUBCHEM_EFFECTIVE_ROTOR_COUNT>
10.8

> <PUBCHEM_PHARMACOPHORE_FEATURES>
7
1 1 acceptor
1 2 acceptor
1 3 donor
3 9 14 15 hydrophobe
4 19 21 22 23 hydrophobe
6 25 26 27 28 29 30 rings
6 5 6 7 8 10 11 rings

> <PUBCHEM_HEAVY_ATOM_COUNT>
30

> <PUBCHEM_ATOM_DEF_STEREO_COUNT>
3

> <PUBCHEM_ATOM_UDEF_STEREO_COUNT>
0

> <PUBCHEM_BOND_DEF_STEREO_COUNT>
0

> <PUBCHEM_BOND_UDEF_STEREO_COUNT>
0

> <PUBCHEM_ISOTOPIC_ATOM_COUNT>
0

> <PUBCHEM_COMPONENT_COUNT>
1

> <PUBCHEM_CACTVS_TAUTO_COUNT>
2

> <PUBCHEM_CONFORMER_ID>
02443FD800000001

> <PUBCHEM_MMFF94_ENERGY>
72.6533

> <PUBCHEM_FEATURE_SELFOVERLAP>
35.521

> <PUBCHEM_SHAPE_FINGERPRINT>
10674148 151 18200612388297190076
11059048 146 17979643651435347996
11070050 100 17240772791220667058
11578080 2 17098369616328262982
12104220 4 17618535106849421625
12156800 1 15868332823834637524
12422481 6 18196343997683050944
12633257 1 18261095392467273846
13583140 156 17531792559826805455
14950920 106 18040714745400227321
15163728 17 18198355145988969086
151778 21 18338800125249001820
15336146 87 18263379018785519573
21033648 29 17556562263546434681
21860390 5 18263944188387511880
3459 110 17968381276996679011
392239 28 17386276692283476426
5081480 168 17772763675326547924
508180 173 17985284086642092320
6086070 43 18045473371495810775

> <PUBCHEM_SHAPE_MULTIPOLES>
595.69
10.46
4.48
3.16
16.08
3.98
-1.28
5.77
-2.22
-5.74
0.84
-0.41
-1.9
-0.93

> <PUBCHEM_SHAPE_SELFOVERLAP>
1214.266

> <PUBCHEM_SHAPE_VOLUME>
345.6

> <PUBCHEM_COORDINATE_TYPE>
2
5
10

$$$$
