45361575
  -OEChem-12032416313D

 68 71  0     1  0  0  0  0  0999 V2000
    8.0504    1.5094   -0.1363 S   0  0  0  0  0  0  0  0  0  0  0  0
    0.7540   -1.7665   -1.6441 O   0  0  0  0  0  0  0  0  0  0  0  0
    5.2873   -1.6919    1.0840 O   0  0  0  0  0  0  0  0  0  0  0  0
   -4.7600    2.2167   -0.7134 O   0  0  0  0  0  0  0  0  0  0  0  0
   -4.0189    0.1561    0.0485 N   0  0  0  0  0  0  0  0  0  0  0  0
    5.2792   -1.1424   -1.1694 N   0  0  0  0  0  0  0  0  0  0  0  0
   -9.0054   -0.4025   -0.4080 N   0  0  0  0  0  0  0  0  0  0  0  0
    0.0232    0.2254    1.5298 C   0  0  1  0  0  0  0  0  0  0  0  0
   -0.1932   -0.3286    0.0823 C   0  0  2  0  0  0  0  0  0  0  0  0
   -1.6984   -0.7136   -0.1498 C   0  0  1  0  0  0  0  0  0  0  0  0
    0.8410   -1.4407   -0.2561 C   0  0  2  0  0  0  0  0  0  0  0  0
    1.4873    0.6993    1.6875 C   0  0  0  0  0  0  0  0  0  0  0  0
   -0.8939    1.4519    1.7426 C   0  0  0  0  0  0  0  0  0  0  0  0
    2.2992   -0.9954    0.0028 C   0  0  1  0  0  0  0  0  0  0  0  0
   -2.6171    0.5067    0.1398 C   0  0  2  0  0  0  0  0  0  0  0  0
    2.5020   -0.3981    1.3952 C   0  0  0  0  0  0  0  0  0  0  0  0
   -2.3658    1.1459    1.5053 C   0  0  0  0  0  0  0  0  0  0  0  0
   -0.2780   -0.8323    2.6218 C   0  0  0  0  0  0  0  0  0  0  0  0
    3.2916   -2.1449   -0.2111 C   0  0  2  0  0  0  0  0  0  0  0  0
   -1.9882   -1.2399   -1.5656 C   0  0  0  0  0  0  0  0  0  0  0  0
    2.9660   -3.3010    0.7280 C   0  0  0  0  0  0  0  0  0  0  0  0
    4.7182   -1.6453   -0.0045 C   0  0  0  0  0  0  0  0  0  0  0  0
   -4.9809    1.0563   -0.3766 C   0  0  0  0  0  0  0  0  0  0  0  0
   -6.3776    0.5503   -0.3892 C   0  0  0  0  0  0  0  0  0  0  0  0
    6.6207   -0.6095   -1.2238 C   0  0  0  0  0  0  0  0  0  0  0  0
   -7.4413    1.4332   -0.2397 C   0  0  0  0  0  0  0  0  0  0  0  0
   -6.6263   -0.8085   -0.5481 C   0  0  0  0  0  0  0  0  0  0  0  0
    6.6582    0.8532   -0.8872 C   0  0  0  0  0  0  0  0  0  0  0  0
   -8.7247    0.9113   -0.2558 C   0  0  0  0  0  0  0  0  0  0  0  0
   -7.9461   -1.2303   -0.5506 C   0  0  0  0  0  0  0  0  0  0  0  0
    5.6879    1.8073   -1.1009 C   0  0  0  0  0  0  0  0  0  0  0  0
    6.0927    3.0941   -0.6421 C   0  0  0  0  0  0  0  0  0  0  0  0
    7.3568    3.0744   -0.0954 C   0  0  0  0  0  0  0  0  0  0  0  0
    0.0088    0.4966   -0.6195 H   0  0  0  0  0  0  0  0  0  0  0  0
   -1.9669   -1.5251    0.5383 H   0  0  0  0  0  0  0  0  0  0  0  0
    0.5676   -2.3355    0.3060 H   0  0  0  0  0  0  0  0  0  0  0  0
    1.6557    1.0831    2.7020 H   0  0  0  0  0  0  0  0  0  0  0  0
    1.6781    1.5406    1.0074 H   0  0  0  0  0  0  0  0  0  0  0  0
   -0.7700    1.8475    2.7588 H   0  0  0  0  0  0  0  0  0  0  0  0
   -0.5941    2.2592    1.0608 H   0  0  0  0  0  0  0  0  0  0  0  0
    2.5445   -0.2105   -0.7283 H   0  0  0  0  0  0  0  0  0  0  0  0
   -2.4147    1.2687   -0.6256 H   0  0  0  0  0  0  0  0  0  0  0  0
    3.4933    0.0620    1.4770 H   0  0  0  0  0  0  0  0  0  0  0  0
    2.4431   -1.1411    2.1928 H   0  0  0  0  0  0  0  0  0  0  0  0
   -2.7490    0.4974    2.3027 H   0  0  0  0  0  0  0  0  0  0  0  0
   -2.9383    2.0786    1.5900 H   0  0  0  0  0  0  0  0  0  0  0  0
   -1.3211   -1.1585    2.6207 H   0  0  0  0  0  0  0  0  0  0  0  0
   -0.0726   -0.4253    3.6189 H   0  0  0  0  0  0  0  0  0  0  0  0
    0.3287   -1.7351    2.5088 H   0  0  0  0  0  0  0  0  0  0  0  0
    3.2103   -2.5209   -1.2392 H   0  0  0  0  0  0  0  0  0  0  0  0
   -1.5565   -2.2338   -1.7134 H   0  0  0  0  0  0  0  0  0  0  0  0
   -3.0615   -1.3589   -1.7460 H   0  0  0  0  0  0  0  0  0  0  0  0
   -1.5972   -0.5607   -2.3301 H   0  0  0  0  0  0  0  0  0  0  0  0
   -4.2901   -0.7495    0.4172 H   0  0  0  0  0  0  0  0  0  0  0  0
    0.9457   -0.9622   -2.1558 H   0  0  0  0  0  0  0  0  0  0  0  0
    2.0117   -3.7804    0.4972 H   0  0  0  0  0  0  0  0  0  0  0  0
    3.7262   -4.0836    0.6045 H   0  0  0  0  0  0  0  0  0  0  0  0
    2.9868   -3.0441    1.7891 H   0  0  0  0  0  0  0  0  0  0  0  0
    4.7257   -1.1193   -2.0209 H   0  0  0  0  0  0  0  0  0  0  0  0
    6.9879   -0.7592   -2.2449 H   0  0  0  0  0  0  0  0  0  0  0  0
    7.2537   -1.1904   -0.5434 H   0  0  0  0  0  0  0  0  0  0  0  0
   -7.2906    2.4994   -0.1087 H   0  0  0  0  0  0  0  0  0  0  0  0
   -5.8430   -1.5428   -0.6975 H   0  0  0  0  0  0  0  0  0  0  0  0
   -9.5888    1.5576   -0.1419 H   0  0  0  0  0  0  0  0  0  0  0  0
   -8.1942   -2.2788   -0.6784 H   0  0  0  0  0  0  0  0  0  0  0  0
    4.7311    1.6039   -1.5651 H   0  0  0  0  0  0  0  0  0  0  0  0
    5.4875    3.9887   -0.7101 H   0  0  0  0  0  0  0  0  0  0  0  0
    7.9063    3.9043    0.3262 H   0  0  0  0  0  0  0  0  0  0  0  0
  1 28  1  0  0  0  0
  1 33  1  0  0  0  0
  2 11  1  0  0  0  0
  2 55  1  0  0  0  0
  3 22  2  0  0  0  0
  4 23  2  0  0  0  0
  5 15  1  0  0  0  0
  5 23  1  0  0  0  0
  5 54  1  0  0  0  0
  6 22  1  0  0  0  0
  6 25  1  0  0  0  0
  6 59  1  0  0  0  0
  7 29  2  0  0  0  0
  7 30  1  0  0  0  0
  8  9  1  0  0  0  0
  8 12  1  0  0  0  0
  8 13  1  0  0  0  0
  8 18  1  0  0  0  0
  9 10  1  0  0  0  0
  9 11  1  0  0  0  0
  9 34  1  0  0  0  0
 10 15  1  0  0  0  0
 10 20  1  0  0  0  0
 10 35  1  0  0  0  0
 11 14  1  0  0  0  0
 11 36  1  0  0  0  0
 12 16  1  0  0  0  0
 12 37  1  0  0  0  0
 12 38  1  0  0  0  0
 13 17  1  0  0  0  0
 13 39  1  0  0  0  0
 13 40  1  0  0  0  0
 14 16  1  0  0  0  0
 14 19  1  0  0  0  0
 14 41  1  0  0  0  0
 15 17  1  0  0  0  0
 15 42  1  0  0  0  0
 16 43  1  0  0  0  0
 16 44  1  0  0  0  0
 17 45  1  0  0  0  0
 17 46  1  0  0  0  0
 18 47  1  0  0  0  0
 18 48  1  0  0  0  0
 18 49  1  0  0  0  0
 19 21  1  0  0  0  0
 19 22  1  0  0  0  0
 19 50  1  0  0  0  0
 20 51  1  0  0  0  0
 20 52  1  0  0  0  0
 20 53  1  0  0  0  0
 21 56  1  0  0  0  0
 21 57  1  0  0  0  0
 21 58  1  0  0  0  0
 23 24  1  0  0  0  0
 24 26  2  0  0  0  0
 24 27  1  0  0  0  0
 25 28  1  0  0  0  0
 25 60  1  0  0  0  0
 25 61  1  0  0  0  0
 26 29  1  0  0  0  0
 26 62  1  0  0  0  0
 27 30  2  0  0  0  0
 27 63  1  0  0  0  0
 28 31  2  0  0  0  0
 29 64  1  0  0  0  0
 30 65  1  0  0  0  0
 31 32  1  0  0  0  0
 31 66  1  0  0  0  0
 32 33  2  0  0  0  0
 32 67  1  0  0  0  0
 33 68  1  0  0  0  0
M  END
> <PUBCHEM_COMPOUND_CID>
45361575

> <PUBCHEM_CONFORMER_RMSD>
1

> <PUBCHEM_CONFORMER_DIVERSEORDER>
1
156
62
27
148
181
117
11
52
133
111
37
137
44
120
138
141
116
169
149
182
30
21
15
155
121
143
132
176
167
35
145
178
159
130
73
69
160
90
177
142
144
68
165
38
50
91
183
157
33
128
151
75
87
88
101
63
110
106
54
170
71
162
10
124
58
84
126
154
83
152
114
4
147
28
125
161
59
66
53
45
168
8
36
179
67
174
118
131
134
100
72
107
164
92
173
76
103
34
13
171
80
86
89
112
93
12
153
98
46
105
180
64
175
139
150
57
81
23
17
7
78
122
29
39
146
65
172
49
79
127
95
2
41
74
24
16
70
56
102
32
9
60
42
115
94
31
40
85
108
135
140
123
77
51
22
61
18
163
6
5
109
55
119
47
166
48
136
19
14
104
3
158
113
96
129
43
25
26
82
99
20
97

> <PUBCHEM_MMFF94_PARTIAL_CHARGES>
32
1 -0.08
11 0.28
15 0.3
19 0.06
2 -0.68
22 0.57
23 0.54
24 0.09
25 0.48
26 -0.15
27 -0.15
28 -0.14
29 0.16
3 -0.57
30 0.16
31 -0.15
32 -0.15
33 -0.11
4 -0.57
5 -0.73
54 0.37
55 0.4
59 0.37
6 -0.73
62 0.15
63 0.15
64 0.15
65 0.15
66 0.15
67 0.15
68 0.15
7 -0.62

> <PUBCHEM_EFFECTIVE_ROTOR_COUNT>
9.6

> <PUBCHEM_PHARMACOPHORE_FEATURES>
12
1 2 acceptor
1 2 donor
1 21 hydrophobe
1 3 acceptor
1 4 acceptor
1 5 donor
1 6 donor
1 7 acceptor
5 1 28 31 32 33 rings
6 7 24 26 27 29 30 rings
6 8 9 10 13 15 17 rings
6 8 9 11 12 14 16 rings

> <PUBCHEM_HEAVY_ATOM_COUNT>
33

> <PUBCHEM_ATOM_DEF_STEREO_COUNT>
6

> <PUBCHEM_ATOM_UDEF_STEREO_COUNT>
1

> <PUBCHEM_BOND_DEF_STEREO_COUNT>
0

> <PUBCHEM_BOND_UDEF_STEREO_COUNT>
0

> <PUBCHEM_ISOTOPIC_ATOM_COUNT>
0

> <PUBCHEM_COMPONENT_COUNT>
1

> <PUBCHEM_CACTVS_TAUTO_COUNT>
4

> <PUBCHEM_CONFORMER_ID>
02B429A700000001

> <PUBCHEM_MMFF94_ENERGY>
89.2733

> <PUBCHEM_FEATURE_SELFOVERLAP>
60.912

> <PUBCHEM_SHAPE_FINGERPRINT>
10076449 9 16559031588528286283
10533779 47 10663825221799737261
10666366 153 13542470834699944729
10673678 19 18412268346066815974
10677351 14 18341324549408967453
10906281 52 17774454788877597867
11007060 377 18260557718802324905
11211813 74 18408602556793478349
11331351 85 13470684841540368211
11638347 137 10663814196634323661
12133447 93 15769498634653419497
13165053 68 18119250807925723431
13617811 41 16774082865061868520
13673619 4 12967133791938302850
13782708 43 12175614062541764364
13811026 1 18187367653267914660
14142895 15 18335984263369611013
14251757 52 18407759239895836644
14675020 138 14851603267694892840
14767858 380 17775288253151248128
150020 25 18409176527695862366
15082195 135 18343305843143932074
15183329 4 17703793617171542048
15361156 5 18342172294158966943
15840311 113 18408889534092112156
16994733 274 17822007580173425925
17686467 74 18040437711968605845
20105231 36 16487255474284438743
2026 5 15050623583112092310
20554085 129 16153706535586194888
20771845 171 17703799085271565702
21033648 29 16950569913437818354
21049683 271 18202281420518745945
21150785 3 18410856555745755453
21267235 1 17275102804368022099
21521721 280 18334862701480191619
21781051 124 17704071837064306351
21781055 127 15482409611858870379
21792934 111 12973873806373889795
21792965 169 17845956060623708580
23522609 53 17702125615246278401
23569914 2 17172319374967159220
25269216 80 14620806989980701384
34797466 226 18271531914088872078
3552219 110 17918003767499923393
4073 2 18260830419346206515
4093350 32 18040995116338422014
4098825 35 18409165481287968373
4149490 64 18040719143057251490
439807 62 13038914322464248292
445580 167 18335978736089521165
4625314 4 18336547123129108959
5265222 85 18412544336513246911
5470011 282 18272934899167552735
86090 222 12895354379064775804
9831232 110 12175628352225258888

> <PUBCHEM_SHAPE_MULTIPOLES>
650.42
25.93
2.81
1.61
23.92
0.23
-0.78
12.76
10.17
-5.37
0.22
-0.58
-0.17
-1.04

> <PUBCHEM_SHAPE_SELFOVERLAP>
1362.305

> <PUBCHEM_SHAPE_VOLUME>
370

> <PUBCHEM_COORDINATE_TYPE>
2
5
10

$$$$
