11912809
  -OEChem-12032416123D

 48 51  0     1  0  0  0  0  0999 V2000
    2.4876    0.5478   -1.2509 O   0  0  0  0  0  0  0  0  0  0  0  0
    0.7282   -1.8455   -0.4829 O   0  0  0  0  0  0  0  0  0  0  0  0
    4.2081   -1.1906    0.0601 O   0  0  0  0  0  0  0  0  0  0  0  0
    7.0136    0.7235    1.1763 O   0  0  0  0  0  0  0  0  0  0  0  0
    6.8513   -0.9669   -0.3872 O   0  0  0  0  0  0  0  0  0  0  0  0
   -0.3880    1.6319   -0.7798 N   0  0  0  0  0  0  0  0  0  0  0  0
   -2.4846    0.7234   -0.2454 N   0  0  0  0  0  0  0  0  0  0  0  0
   -2.0113    3.0545    0.1407 N   0  0  0  0  0  0  0  0  0  0  0  0
    0.6634   -0.4521   -0.1126 C   0  0  1  0  0  0  0  0  0  0  0  0
    2.0930    0.0309    0.0304 C   0  0  1  0  0  0  0  0  0  0  0  0
    0.1155    0.3630   -1.2605 C   0  0  2  0  0  0  0  0  0  0  0  0
    2.8346   -1.2388    0.3735 C   0  0  1  0  0  0  0  0  0  0  0  0
    1.3472    0.5774   -2.1229 C   0  0  0  0  0  0  0  0  0  0  0  0
    2.0985   -2.2705   -0.4512 C   0  0  0  0  0  0  0  0  0  0  0  0
   -1.6661    1.8085   -0.2797 C   0  0  0  0  0  0  0  0  0  0  0  0
    4.8991   -0.2171    0.8390 C   0  0  0  0  0  0  0  0  0  0  0  0
    6.3537   -0.2250    0.4489 C   0  0  0  0  0  0  0  0  0  0  0  0
   -3.7230    0.9314    0.2476 C   0  0  0  0  0  0  0  0  0  0  0  0
   -3.2644    3.1910    0.6220 C   0  0  0  0  0  0  0  0  0  0  0  0
   -4.1725    2.1551    0.7005 C   0  0  0  0  0  0  0  0  0  0  0  0
   -4.5749   -0.2333    0.2761 C   0  0  0  0  0  0  0  0  0  0  0  0
   -5.9587   -0.0931    0.1487 C   0  0  0  0  0  0  0  0  0  0  0  0
   -4.0187   -1.5049    0.4309 C   0  0  0  0  0  0  0  0  0  0  0  0
    8.4160    0.8360    0.9133 C   0  0  0  0  0  0  0  0  0  0  0  0
   -6.7820   -1.2188    0.1761 C   0  0  0  0  0  0  0  0  0  0  0  0
   -4.8420   -2.6306    0.4582 C   0  0  0  0  0  0  0  0  0  0  0  0
   -6.2236   -2.4875    0.3308 C   0  0  0  0  0  0  0  0  0  0  0  0
    0.0924   -0.3864    0.8189 H   0  0  0  0  0  0  0  0  0  0  0  0
    2.2059    0.8323    0.7665 H   0  0  0  0  0  0  0  0  0  0  0  0
   -0.6474   -0.1601   -1.8485 H   0  0  0  0  0  0  0  0  0  0  0  0
    2.6957   -1.4767    1.4368 H   0  0  0  0  0  0  0  0  0  0  0  0
    1.4693   -0.2422   -2.8397 H   0  0  0  0  0  0  0  0  0  0  0  0
    1.3419    1.5199   -2.6792 H   0  0  0  0  0  0  0  0  0  0  0  0
    2.4753   -2.3286   -1.4785 H   0  0  0  0  0  0  0  0  0  0  0  0
    2.1620   -3.2725   -0.0164 H   0  0  0  0  0  0  0  0  0  0  0  0
    0.2302    2.4348   -0.7522 H   0  0  0  0  0  0  0  0  0  0  0  0
    4.8173   -0.4693    1.9014 H   0  0  0  0  0  0  0  0  0  0  0  0
    4.5096    0.7857    0.6412 H   0  0  0  0  0  0  0  0  0  0  0  0
   -3.5247    4.1886    0.9595 H   0  0  0  0  0  0  0  0  0  0  0  0
   -5.1548    2.3299    1.1200 H   0  0  0  0  0  0  0  0  0  0  0  0
   -6.4338    0.8731    0.0008 H   0  0  0  0  0  0  0  0  0  0  0  0
   -2.9469   -1.6512    0.5433 H   0  0  0  0  0  0  0  0  0  0  0  0
    8.5842    1.1135   -0.1316 H   0  0  0  0  0  0  0  0  0  0  0  0
    8.8201    1.6235    1.5550 H   0  0  0  0  0  0  0  0  0  0  0  0
    8.9223   -0.1045    1.1503 H   0  0  0  0  0  0  0  0  0  0  0  0
   -7.8574   -1.1085    0.0711 H   0  0  0  0  0  0  0  0  0  0  0  0
   -4.4077   -3.6186    0.5806 H   0  0  0  0  0  0  0  0  0  0  0  0
   -6.8645   -3.3641    0.3511 H   0  0  0  0  0  0  0  0  0  0  0  0
  1 10  1  0  0  0  0
  1 13  1  0  0  0  0
  2  9  1  0  0  0  0
  2 14  1  0  0  0  0
  3 12  1  0  0  0  0
  3 16  1  0  0  0  0
  4 17  1  0  0  0  0
  4 24  1  0  0  0  0
  5 17  2  0  0  0  0
  6 11  1  0  0  0  0
  6 15  1  0  0  0  0
  6 36  1  0  0  0  0
  7 15  1  0  0  0  0
  7 18  2  0  0  0  0
  8 15  2  0  0  0  0
  8 19  1  0  0  0  0
  9 10  1  0  0  0  0
  9 11  1  0  0  0  0
  9 28  1  0  0  0  0
 10 12  1  0  0  0  0
 10 29  1  0  0  0  0
 11 13  1  0  0  0  0
 11 30  1  0  0  0  0
 12 14  1  0  0  0  0
 12 31  1  0  0  0  0
 13 32  1  0  0  0  0
 13 33  1  0  0  0  0
 14 34  1  0  0  0  0
 14 35  1  0  0  0  0
 16 17  1  0  0  0  0
 16 37  1  0  0  0  0
 16 38  1  0  0  0  0
 18 20  1  0  0  0  0
 18 21  1  0  0  0  0
 19 20  2  0  0  0  0
 19 39  1  0  0  0  0
 20 40  1  0  0  0  0
 21 22  2  0  0  0  0
 21 23  1  0  0  0  0
 22 25  1  0  0  0  0
 22 41  1  0  0  0  0
 23 26  2  0  0  0  0
 23 42  1  0  0  0  0
 24 43  1  0  0  0  0
 24 44  1  0  0  0  0
 24 45  1  0  0  0  0
 25 27  2  0  0  0  0
 25 46  1  0  0  0  0
 26 27  1  0  0  0  0
 26 47  1  0  0  0  0
 27 48  1  0  0  0  0
M  END
> <PUBCHEM_COMPOUND_CID>
11912809

> <PUBCHEM_CONFORMER_RMSD>
1

> <PUBCHEM_CONFORMER_DIVERSEORDER>
1
32
71
77
61
86
49
84
81
108
69
98
82
94
87
29
8
91
39
109
110
120
111
78
99
76
124
93
112
65
101
9
47
75
11
113
56
66
23
42
64
122
105
102
114
38
3
88
96
126
73
13
100
103
22
59
17
45
72
53
116
4
89
55
6
92
50
41
10
24
79
36
67
104
20
7
97
14
68
74
51
119
40
70
95
125
31
106
52
16
25
107
21
127
19
28
30
44
48
35
12
60
43
33
118
62
5
15
34
115
26
2
80
54
63
58
57
117
27
121
85
46
83
90
123
18
37

> <PUBCHEM_MMFF94_PARTIAL_CHARGES>
34
1 -0.56
10 0.28
11 0.37
12 0.28
13 0.28
14 0.28
15 0.72
16 0.34
17 0.66
18 0.31
19 0.16
2 -0.56
20 -0.15
22 -0.15
23 -0.15
24 0.28
25 -0.15
26 -0.15
27 -0.15
3 -0.56
36 0.4
39 0.15
4 -0.43
40 0.15
41 0.15
42 0.15
46 0.15
47 0.15
48 0.15
5 -0.57
6 -0.87
7 -0.62
8 -0.62
9 0.28

> <PUBCHEM_EFFECTIVE_ROTOR_COUNT>
8.2

> <PUBCHEM_PHARMACOPHORE_FEATURES>
11
1 1 acceptor
1 2 acceptor
1 3 acceptor
1 5 acceptor
1 6 donor
1 7 acceptor
4 6 7 8 15 cation
5 1 9 10 11 13 rings
5 2 9 10 12 14 rings
6 21 22 23 25 26 27 rings
6 7 8 15 18 19 20 rings

> <PUBCHEM_HEAVY_ATOM_COUNT>
27

> <PUBCHEM_ATOM_DEF_STEREO_COUNT>
4

> <PUBCHEM_ATOM_UDEF_STEREO_COUNT>
0

> <PUBCHEM_BOND_DEF_STEREO_COUNT>
0

> <PUBCHEM_BOND_UDEF_STEREO_COUNT>
0

> <PUBCHEM_ISOTOPIC_ATOM_COUNT>
0

> <PUBCHEM_COMPONENT_COUNT>
1

> <PUBCHEM_CACTVS_TAUTO_COUNT>
3

> <PUBCHEM_CONFORMER_ID>
00B5C66900000001

> <PUBCHEM_MMFF94_ENERGY>
83.8014

> <PUBCHEM_FEATURE_SELFOVERLAP>
56.549

> <PUBCHEM_SHAPE_FINGERPRINT>
10 15 17988922284443931798
10369192 42 16988842800245366036
11135609 99 17968663855232008083
11211813 128 18272933847402238046
11315181 36 18334013891641586145
11408170 108 15068887609268390568
12144600 37 18270685260683104038
12166972 35 17749110036387092101
12553582 1 18195273155452468439
12596602 18 18339640041027202600
128238 76 18335423495449408620
12838862 33 18262223470560793263
13631057 29 18409728461173973755
13740195 50 18336820996999792304
13911882 115 18130515140858234630
13947920 75 17821725056923775026
14251752 14 9511465520067873512
14394314 77 18336549322827532849
1454969 45 18114187458205836694
14659021 117 18333732425423401369
14849402 71 18340487884994992776
15183329 4 9367350336202608412
15338160 23 17346328046724275345
15352361 1 18409735080214637207
15728490 51 18408601496157705854
15927050 60 17477206497259021692
16992727 255 10159707914550084370
1768 4 16988269989590216488
18335252 98 18343022199404142906
18336668 15 18040717000342615919
18608769 82 18343296003300003970
19611394 137 18272090517482596744
20028762 73 18334016107549941826
20567600 70 18334012834942461987
21130935 74 18337388237251508914
21223535 225 14346062093715679727
21315759 148 18201727202249265278
21365058 27 16343703253030533278
22224240 67 18334009502290582866
22956985 138 17834392698513650305
23559900 14 18411411809397994017
2747138 104 18411143562498133218
3004659 81 17967250927640945415
3009799 131 11241972573231476502
32027 91 17686895021154147918
3383291 50 18041569134834821947
339767 52 18408321099560619503
392239 28 18341337755267767001
397830 11 18273497849732793094
4073 2 18340771425143181595
4149490 64 17169000048473230017
439807 62 17750805535864714475
4403749 210 18340476816114398596
463206 1 18264214793609539739
5104073 3 18268424634173224346
552612 73 17773022271682359554
59682541 35 18340764944433145130
6703917 75 18341621438743806106
67856867 119 18260554458521843957
9689198 14 17203610393903990360
9953998 17 18272654532767346489

> <PUBCHEM_SHAPE_MULTIPOLES>
511.36
19.62
2.93
1.1
24.34
0.93
-0.41
-5.46
7.47
-4.84
0.41
0.96
0.25
0.38

> <PUBCHEM_SHAPE_SELFOVERLAP>
1105.856

> <PUBCHEM_SHAPE_VOLUME>
280.4

> <PUBCHEM_COORDINATE_TYPE>
2
5
10

$$$$
