45784341
  -OEChem-12032416283D

 39 42  0     1  0  0  0  0  0999 V2000
   -4.2976   -1.9348   -1.0101 F   0  0  0  0  0  0  0  0  0  0  0  0
    7.1202    1.4371   -0.7509 F   0  0  0  0  0  0  0  0  0  0  0  0
    2.6933   -1.4102    0.5442 O   0  0  0  0  0  0  0  0  0  0  0  0
   -1.8231   -0.1470   -0.0178 N   0  0  1  0  0  0  0  0  0  0  0  0
    2.3399    0.7596   -0.0070 N   0  0  0  0  0  0  0  0  0  0  0  0
    0.3601   -0.7112    0.6260 C   0  0  1  0  0  0  0  0  0  0  0  0
   -0.3029    0.1264    1.7334 C   0  0  0  0  0  0  0  0  0  0  0  0
   -0.5293   -0.4993   -0.6065 C   0  0  0  0  0  0  0  0  0  0  0  0
   -1.5038    0.7831    1.0652 C   0  0  0  0  0  0  0  0  0  0  0  0
   -2.7378    0.4299   -0.9920 C   0  0  0  0  0  0  0  0  0  0  0  0
    1.8130   -0.3855    0.3672 C   0  0  0  0  0  0  0  0  0  0  0  0
   -4.1656    0.3834   -0.5166 C   0  0  0  0  0  0  0  0  0  0  0  0
    3.6824    0.4789   -0.0871 C   0  0  0  0  0  0  0  0  0  0  0  0
    3.9026   -0.8486    0.2496 C   0  0  0  0  0  0  0  0  0  0  0  0
   -4.8768   -0.8158   -0.5531 C   0  0  0  0  0  0  0  0  0  0  0  0
   -4.7770    1.5425   -0.0389 C   0  0  0  0  0  0  0  0  0  0  0  0
    4.7791    1.2807   -0.4342 C   0  0  0  0  0  0  0  0  0  0  0  0
    5.1482   -1.4636    0.2721 C   0  0  0  0  0  0  0  0  0  0  0  0
   -6.1994   -0.8562   -0.1119 C   0  0  0  0  0  0  0  0  0  0  0  0
   -6.0997    1.5023    0.4023 C   0  0  0  0  0  0  0  0  0  0  0  0
    6.0534    0.6952   -0.4231 C   0  0  0  0  0  0  0  0  0  0  0  0
    6.2316   -0.6499   -0.0767 C   0  0  0  0  0  0  0  0  0  0  0  0
   -6.8109    0.3030    0.3659 C   0  0  0  0  0  0  0  0  0  0  0  0
    0.2955   -1.7669    0.9259 H   0  0  0  0  0  0  0  0  0  0  0  0
   -0.6372   -0.5374    2.5405 H   0  0  0  0  0  0  0  0  0  0  0  0
    0.3666    0.8733    2.1731 H   0  0  0  0  0  0  0  0  0  0  0  0
   -0.1449    0.3095   -1.2423 H   0  0  0  0  0  0  0  0  0  0  0  0
   -0.5932   -1.4102   -1.2116 H   0  0  0  0  0  0  0  0  0  0  0  0
   -2.3289    0.9045    1.7741 H   0  0  0  0  0  0  0  0  0  0  0  0
   -1.2180    1.7727    0.6858 H   0  0  0  0  0  0  0  0  0  0  0  0
   -2.4505    1.4521   -1.2736 H   0  0  0  0  0  0  0  0  0  0  0  0
   -2.6967   -0.1452   -1.9280 H   0  0  0  0  0  0  0  0  0  0  0  0
   -4.2339    2.4832   -0.0035 H   0  0  0  0  0  0  0  0  0  0  0  0
    4.6529    2.3238   -0.7045 H   0  0  0  0  0  0  0  0  0  0  0  0
    5.2754   -2.5046    0.5415 H   0  0  0  0  0  0  0  0  0  0  0  0
   -6.7528   -1.7901   -0.1403 H   0  0  0  0  0  0  0  0  0  0  0  0
   -6.5757    2.4047    0.7747 H   0  0  0  0  0  0  0  0  0  0  0  0
    7.2340   -1.0713   -0.0788 H   0  0  0  0  0  0  0  0  0  0  0  0
   -7.8407    0.2716    0.7096 H   0  0  0  0  0  0  0  0  0  0  0  0
  1 15  1  0  0  0  0
  2 21  1  0  0  0  0
  3 11  1  0  0  0  0
  3 14  1  0  0  0  0
  4  8  1  0  0  0  0
  4  9  1  0  0  0  0
  4 10  1  0  0  0  0
  5 11  2  0  0  0  0
  5 13  1  0  0  0  0
  6  7  1  0  0  0  0
  6  8  1  0  0  0  0
  6 11  1  0  0  0  0
  6 24  1  0  0  0  0
  7  9  1  0  0  0  0
  7 25  1  0  0  0  0
  7 26  1  0  0  0  0
  8 27  1  0  0  0  0
  8 28  1  0  0  0  0
  9 29  1  0  0  0  0
  9 30  1  0  0  0  0
 10 12  1  0  0  0  0
 10 31  1  0  0  0  0
 10 32  1  0  0  0  0
 12 15  1  0  0  0  0
 12 16  2  0  0  0  0
 13 14  2  0  0  0  0
 13 17  1  0  0  0  0
 14 18  1  0  0  0  0
 15 19  2  0  0  0  0
 16 20  1  0  0  0  0
 16 33  1  0  0  0  0
 17 21  2  0  0  0  0
 17 34  1  0  0  0  0
 18 22  2  0  0  0  0
 18 35  1  0  0  0  0
 19 23  1  0  0  0  0
 19 36  1  0  0  0  0
 20 23  2  0  0  0  0
 20 37  1  0  0  0  0
 21 22  1  0  0  0  0
 22 38  1  0  0  0  0
 23 39  1  0  0  0  0
M  END
> <PUBCHEM_COMPOUND_CID>
45784341

> <PUBCHEM_CONFORMER_RMSD>
0.8

> <PUBCHEM_CONFORMER_DIVERSEORDER>
1
23
55
62
69
42
64
51
52
24
7
53
5
46
40
44
21
45
68
12
39
20
47
26
67
60
32
49
31
65
4
54
30
15
66
29
56
59
25
36
10
2
18
57
27
16
38
28
6
19
35
9
43
37
34
48
41
8
50
22
11
3
14
63
13
61
58
17
33

> <PUBCHEM_MMFF94_PARTIAL_CHARGES>
29
1 -0.19
10 0.41
11 0.3
12 -0.14
13 0.23
14 0.14
15 0.19
16 -0.15
17 -0.15
18 -0.15
19 -0.15
2 -0.19
20 -0.15
21 0.19
22 -0.15
23 -0.15
3 -0.28
33 0.15
34 0.15
35 0.15
36 0.15
37 0.15
38 0.15
39 0.15
4 -0.81
5 -0.57
6 0.18
8 0.27
9 0.27

> <PUBCHEM_EFFECTIVE_ROTOR_COUNT>
4

> <PUBCHEM_PHARMACOPHORE_FEATURES>
5
1 4 cation
5 3 5 11 13 14 rings
5 4 6 7 8 9 rings
6 12 15 16 19 20 23 rings
6 13 14 17 18 21 22 rings

> <PUBCHEM_HEAVY_ATOM_COUNT>
23

> <PUBCHEM_ATOM_DEF_STEREO_COUNT>
1

> <PUBCHEM_ATOM_UDEF_STEREO_COUNT>
0

> <PUBCHEM_BOND_DEF_STEREO_COUNT>
0

> <PUBCHEM_BOND_UDEF_STEREO_COUNT>
0

> <PUBCHEM_ISOTOPIC_ATOM_COUNT>
0

> <PUBCHEM_COMPONENT_COUNT>
1

> <PUBCHEM_CACTVS_TAUTO_COUNT>
1

> <PUBCHEM_CONFORMER_ID>
02BA9D1500000001

> <PUBCHEM_MMFF94_ENERGY>
44.0759

> <PUBCHEM_FEATURE_SELFOVERLAP>
25.492

> <PUBCHEM_SHAPE_FINGERPRINT>
10 15 13623534584584248124
10299344 5 18413952789354041191
10595046 47 18408602535286252721
106641 1 13334745651872137996
11315181 36 16487254383499570339
11524674 6 16128654172159045655
11646440 116 16298392348468738020
12107183 9 17544752331442044561
12166972 35 18333734619677669516
12236239 1 18341894078170708266
12516196 113 17749108889419710348
12643181 29 14549015490256683484
12730499 353 17603588495914709954
12788726 201 17274544217890507419
12916748 109 16371006278611117804
13167372 99 18336547110202008640
13533116 47 18411697643840122914
1420 363 16877664548078363715
14251752 14 17988642973735138481
14251764 18 18408040718972186477
14849402 71 18115315595221870476
14856354 85 18060422439367079423
14933364 13 18411139129970551205
15183329 4 18343300353505898901
15537594 2 16487251058498739695
17844677 252 18273216408915808937
18006028 8 12895354391052676890
18335252 98 18261118499502304099
19489759 90 8358259250739717039
200 152 18341892987122531698
20157964 124 18187085053563244722
21150785 3 18343868835936327764
220451 1 18273213092831765079
221357 26 18260545606873743668
22224240 67 16008750225087985825
23035841 295 18273494568193363731
23081809 10 18341885286278006823
23198884 109 18334296461697606049
23402539 116 18342734109386258805
23516275 137 18127995047623916931
23522609 53 18268734782040944537
23536379 177 18410855438811580987
23559900 14 17774712147312047177
23569943 247 17025423401535273170
23622692 88 13551196593152862906
29717793 49 18059580157594018494
3004659 81 18343019965614973466
314173 85 14979955869722548123
335352 9 18059851763137114669
34797466 226 16272209717691289928
3545911 37 17967251996665627074
397830 11 15141828243401541596
4073 2 18040441026797434162
4325135 7 18335138700531562861
4340502 62 15646771176545972970
5265222 85 18059010712901362271
5283156 175 17632580414500358614
542803 24 18412541002932231639
5758199 1 18040156218688133480
59682541 35 16370734751032197089
59755656 215 15410902833901156084
59755656 520 17385723608065535499
9996256 80 18261108560683846957
999808 66 18188218693223305587

> <PUBCHEM_SHAPE_MULTIPOLES>
442.95
19.63
1.49
1
1.25
0.03
-0.2
-2.73
2.75
0.02
0.14
-0.33
-0.01
-1.24

> <PUBCHEM_SHAPE_SELFOVERLAP>
977.735

> <PUBCHEM_SHAPE_VOLUME>
241.1

> <PUBCHEM_COORDINATE_TYPE>
2
5
10

$$$$
