11912000
  -OEChem-12032416373D

 58 62  0     1  0  0  0  0  0999 V2000
   -3.5051    2.0636    0.9827 S   0  0  0  0  0  0  0  0  0  0  0  0
    0.5972    2.1501   -1.4338 O   0  0  0  0  0  0  0  0  0  0  0  0
   -1.2823   -0.1732   -2.3478 O   0  0  0  0  0  0  0  0  0  0  0  0
   -4.5398    2.6136    0.1279 O   0  0  0  0  0  0  0  0  0  0  0  0
   -3.4339    2.4449    2.3802 O   0  0  0  0  0  0  0  0  0  0  0  0
   -2.6034    0.1098    3.0916 O   0  0  0  0  0  0  0  0  0  0  0  0
   -4.8942   -2.2692   -1.3228 O   0  0  0  0  0  0  0  0  0  0  0  0
    5.0593    1.2938   -0.2409 O   0  0  0  0  0  0  0  0  0  0  0  0
   -1.9863    2.3194    0.2681 N   0  0  0  0  0  0  0  0  0  0  0  0
    1.3193   -1.4228   -1.2403 N   0  0  0  0  0  0  0  0  0  0  0  0
    3.3652   -0.6503   -0.3890 N   0  0  0  0  0  0  0  0  0  0  0  0
    2.5800   -2.8746    0.1041 N   0  0  0  0  0  0  0  0  0  0  0  0
   -1.0823    0.4993   -1.0934 C   0  0  1  0  0  0  0  0  0  0  0  0
    0.3986    0.8026   -0.9749 C   0  0  1  0  0  0  0  0  0  0  0  0
   -1.7370    1.8590   -1.1198 C   0  0  2  0  0  0  0  0  0  0  0  0
    1.0537   -0.1748   -1.9220 C   0  0  2  0  0  0  0  0  0  0  0  0
   -0.6742    2.7299   -1.7608 C   0  0  0  0  0  0  0  0  0  0  0  0
   -0.0117   -0.3734   -2.9843 C   0  0  0  0  0  0  0  0  0  0  0  0
    2.4555   -1.6561   -0.4860 C   0  0  0  0  0  0  0  0  0  0  0  0
   -3.6386    0.3015    0.9354 C   0  0  0  0  0  0  0  0  0  0  0  0
   -3.1722   -0.4617    1.9934 C   0  0  0  0  0  0  0  0  0  0  0  0
   -4.2159   -0.2873   -0.1785 C   0  0  0  0  0  0  0  0  0  0  0  0
    4.4602   -0.9122    0.3545 C   0  0  0  0  0  0  0  0  0  0  0  0
   -4.3299   -1.6764   -0.2353 C   0  0  0  0  0  0  0  0  0  0  0  0
   -3.2859   -1.8508    1.9364 C   0  0  0  0  0  0  0  0  0  0  0  0
    3.6992   -3.0682    0.8325 C   0  0  0  0  0  0  0  0  0  0  0  0
    4.6829   -2.1141    0.9947 C   0  0  0  0  0  0  0  0  0  0  0  0
   -3.8650   -2.4582    0.8221 C   0  0  0  0  0  0  0  0  0  0  0  0
    5.4044    0.1702    0.4378 C   0  0  0  0  0  0  0  0  0  0  0  0
   -1.1918    0.3109    3.0598 C   0  0  0  0  0  0  0  0  0  0  0  0
    6.6146    0.3328    1.0662 C   0  0  0  0  0  0  0  0  0  0  0  0
   -5.3484   -1.4105   -2.3679 C   0  0  0  0  0  0  0  0  0  0  0  0
    7.0441    1.6446    0.7537 C   0  0  0  0  0  0  0  0  0  0  0  0
    6.0636    2.1877   -0.0435 C   0  0  0  0  0  0  0  0  0  0  0  0
   -1.4002   -0.1859   -0.3094 H   0  0  0  0  0  0  0  0  0  0  0  0
    0.7619    0.7565    0.0566 H   0  0  0  0  0  0  0  0  0  0  0  0
   -2.6593    1.9023   -1.7064 H   0  0  0  0  0  0  0  0  0  0  0  0
    1.9646    0.2108   -2.3943 H   0  0  0  0  0  0  0  0  0  0  0  0
   -0.6937    3.7710   -1.4244 H   0  0  0  0  0  0  0  0  0  0  0  0
   -0.7648    2.7183   -2.8526 H   0  0  0  0  0  0  0  0  0  0  0  0
    0.0062   -1.3619   -3.4535 H   0  0  0  0  0  0  0  0  0  0  0  0
    0.0772    0.3822   -3.7728 H   0  0  0  0  0  0  0  0  0  0  0  0
   -1.1612    2.4453    0.8671 H   0  0  0  0  0  0  0  0  0  0  0  0
    0.6234   -2.1597   -1.2612 H   0  0  0  0  0  0  0  0  0  0  0  0
   -4.5584    0.3573   -0.9787 H   0  0  0  0  0  0  0  0  0  0  0  0
   -2.9259   -2.4663    2.7564 H   0  0  0  0  0  0  0  0  0  0  0  0
    3.7860   -4.0443    1.2978 H   0  0  0  0  0  0  0  0  0  0  0  0
    5.5624   -2.3219    1.5906 H   0  0  0  0  0  0  0  0  0  0  0  0
   -3.9507   -3.5407    0.7834 H   0  0  0  0  0  0  0  0  0  0  0  0
   -0.6987   -0.5513    3.5186 H   0  0  0  0  0  0  0  0  0  0  0  0
   -0.8102    0.4437    2.0443 H   0  0  0  0  0  0  0  0  0  0  0  0
   -0.9556    1.2027    3.6466 H   0  0  0  0  0  0  0  0  0  0  0  0
    7.1353   -0.3922    1.6757 H   0  0  0  0  0  0  0  0  0  0  0  0
   -4.5201   -0.8547   -2.8207 H   0  0  0  0  0  0  0  0  0  0  0  0
   -5.7688   -2.0499   -3.1511 H   0  0  0  0  0  0  0  0  0  0  0  0
   -6.1546   -0.7522   -2.0270 H   0  0  0  0  0  0  0  0  0  0  0  0
    7.9544    2.1333    1.0698 H   0  0  0  0  0  0  0  0  0  0  0  0
    5.9374    3.1461   -0.5255 H   0  0  0  0  0  0  0  0  0  0  0  0
  1  4  2  0  0  0  0
  1  5  2  0  0  0  0
  1  9  1  0  0  0  0
  1 20  1  0  0  0  0
  2 14  1  0  0  0  0
  2 17  1  0  0  0  0
  3 13  1  0  0  0  0
  3 18  1  0  0  0  0
  6 21  1  0  0  0  0
  6 30  1  0  0  0  0
  7 24  1  0  0  0  0
  7 32  1  0  0  0  0
  8 29  1  0  0  0  0
  8 34  1  0  0  0  0
  9 15  1  0  0  0  0
  9 43  1  0  0  0  0
 10 16  1  0  0  0  0
 10 19  1  0  0  0  0
 10 44  1  0  0  0  0
 11 19  1  0  0  0  0
 11 23  2  0  0  0  0
 12 19  2  0  0  0  0
 12 26  1  0  0  0  0
 13 14  1  0  0  0  0
 13 15  1  0  0  0  0
 13 35  1  0  0  0  0
 14 16  1  0  0  0  0
 14 36  1  0  0  0  0
 15 17  1  0  0  0  0
 15 37  1  0  0  0  0
 16 18  1  0  0  0  0
 16 38  1  0  0  0  0
 17 39  1  0  0  0  0
 17 40  1  0  0  0  0
 18 41  1  0  0  0  0
 18 42  1  0  0  0  0
 20 21  2  0  0  0  0
 20 22  1  0  0  0  0
 21 25  1  0  0  0  0
 22 24  2  0  0  0  0
 22 45  1  0  0  0  0
 23 27  1  0  0  0  0
 23 29  1  0  0  0  0
 24 28  1  0  0  0  0
 25 28  2  0  0  0  0
 25 46  1  0  0  0  0
 26 27  2  0  0  0  0
 26 47  1  0  0  0  0
 27 48  1  0  0  0  0
 28 49  1  0  0  0  0
 29 31  2  0  0  0  0
 30 50  1  0  0  0  0
 30 51  1  0  0  0  0
 30 52  1  0  0  0  0
 31 33  1  0  0  0  0
 31 53  1  0  0  0  0
 32 54  1  0  0  0  0
 32 55  1  0  0  0  0
 32 56  1  0  0  0  0
 33 34  2  0  0  0  0
 33 57  1  0  0  0  0
 34 58  1  0  0  0  0
M  END
> <PUBCHEM_COMPOUND_CID>
11912000

> <PUBCHEM_CONFORMER_RMSD>
1.2

> <PUBCHEM_CONFORMER_DIVERSEORDER>
1
524
48
458
34
122
392
61
6
232
215
280
223
66
529
466
441
123
550
385
471
491
410
424
192
347
207
141
98
370
243
480
569
35
67
501
88
22
305
259
405
298
452
233
443
241
557
428
308
502
171
196
78
362
49
523
400
18
500
261
556
63
50
376
134
219
90
27
447
229
214
146
352
30
166
23
554
395
96
282
186
355
570
393
459
97
7
170
360
20
128
47
152
407
173
28
341
217
528
51
105
264
260
184
536
127
494
332
289
150
525
54
187
295
11
142
58
206
423
317
283
210
19
4
438
99
145
242
520
9
470
446
476
32
185
56
73
55
158
464
248
245
238
197
143
201
118
490
307
365
37
5
199
8
114
26
379
252
25
115
40
14
174
162
246
106
390
203
270
432
3
555
76
2
57
189
82
41
448
13
77
218
271
274
309
64
46
10
177
62
15
521
188
348
292
165
492
17
322

> <PUBCHEM_MMFF94_PARTIAL_CHARGES>
44
1 1.45
10 -0.87
11 -0.62
12 -0.62
13 0.28
14 0.28
15 0.36
16 0.37
17 0.28
18 0.28
19 0.72
2 -0.56
20 -0.01
21 0.08
22 -0.15
23 0.36
24 0.08
25 -0.15
26 0.16
27 -0.15
28 -0.15
29 0.09
3 -0.56
30 0.28
31 -0.15
32 0.28
33 -0.15
34 -0.01
4 -0.65
43 0.42
44 0.4
45 0.15
46 0.15
47 0.15
48 0.15
49 0.15
5 -0.65
53 0.15
57 0.15
58 0.15
6 -0.36
7 -0.36
8 -0.28
9 -0.91

> <PUBCHEM_EFFECTIVE_ROTOR_COUNT>
9.2

> <PUBCHEM_PHARMACOPHORE_FEATURES>
16
1 10 donor
1 11 acceptor
1 2 acceptor
1 3 acceptor
1 4 acceptor
1 5 acceptor
1 6 acceptor
1 7 acceptor
1 8 acceptor
1 9 donor
4 10 11 12 19 cation
5 2 13 14 15 17 rings
5 3 13 14 16 18 rings
5 8 29 31 33 34 rings
6 11 12 19 23 26 27 rings
6 20 21 22 24 25 28 rings

> <PUBCHEM_HEAVY_ATOM_COUNT>
34

> <PUBCHEM_ATOM_DEF_STEREO_COUNT>
4

> <PUBCHEM_ATOM_UDEF_STEREO_COUNT>
0

> <PUBCHEM_BOND_DEF_STEREO_COUNT>
0

> <PUBCHEM_BOND_UDEF_STEREO_COUNT>
0

> <PUBCHEM_ISOTOPIC_ATOM_COUNT>
0

> <PUBCHEM_COMPONENT_COUNT>
1

> <PUBCHEM_CACTVS_TAUTO_COUNT>
3

> <PUBCHEM_CONFORMER_ID>
00B5C34000000001

> <PUBCHEM_MMFF94_ENERGY>
94.0169

> <PUBCHEM_FEATURE_SELFOVERLAP>
81.951

> <PUBCHEM_SHAPE_FINGERPRINT>
10010297 198 18131069286487636230
10032420 55 17774994713205800178
10670039 82 15626227888486916328
10842051 180 18267583705166863070
11135609 201 18055899126077418336
12596602 18 17988925582915648106
12712778 12 14923939093888097946
13383668 40 18194404618618453523
13782708 43 17314505938734203746
13994607 96 16271925974370252145
14279260 333 10015049538123563708
14415361 192 17845941861088165425
14856354 85 16630240437036204622
14950920 106 18193554472337839000
15183329 4 10375876260278772504
17809404 112 17095243622306736122
19315092 285 17986108732920070217
19377110 9 18340752811388092222
20511986 3 18262232223366402439
21458453 9 17969503891554766336
21756936 100 15698281110100320052
23572383 38 17313383443934430450
3383291 50 17240777168419947059
3459 110 18408041788899143024
3459 83 8718562609559768862
392239 28 18113616773000458352
437795 139 14274871077436812064
4394409 98 14056989525467858866
469060 322 18263352737400067372
57527293 21 18272374113803951231
613672 6 15864072044568205150
6523845 18 14549018792717112542

> <PUBCHEM_SHAPE_MULTIPOLES>
642.54
14.67
3.36
2.74
19.99
0.11
-0.35
0.34
-3.97
-0.14
-0.19
-3.46
-0.12
-0.87

> <PUBCHEM_SHAPE_SELFOVERLAP>
1392.806

> <PUBCHEM_SHAPE_VOLUME>
353.8

> <PUBCHEM_COORDINATE_TYPE>
2
5
10

$$$$
