7673684
  -OEChem-12032416113D

 66 70  0     1  0  0  0  0  0999 V2000
    0.1671   -1.4448    2.3486 O   0  0  0  0  0  0  0  0  0  0  0  0
    3.4766    0.3825   -2.2041 O   0  0  0  0  0  0  0  0  0  0  0  0
   -2.7030   -1.1101   -1.5193 O   0  0  0  0  0  0  0  0  0  0  0  0
    1.5962    6.0644    0.4048 O   0  0  0  0  0  0  0  0  0  0  0  0
   -6.2614   -0.0808    1.9805 O   0  0  0  0  0  0  0  0  0  0  0  0
    4.2257   -1.1335   -0.6238 N   0  0  0  0  0  0  0  0  0  0  0  0
    1.6657   -2.4102    0.8378 N   0  0  0  0  0  0  0  0  0  0  0  0
    4.2065    1.1784   -0.1507 N   0  0  0  0  0  0  0  0  0  0  0  0
   -1.9497   -1.6439    0.6079 N   0  0  0  0  0  0  0  0  0  0  0  0
   -4.0612   -0.7776    0.3658 N   0  0  0  0  0  0  0  0  0  0  0  0
    4.1577   -2.6890    1.3451 C   0  0  1  0  0  0  0  0  0  0  0  0
    3.2665   -3.4268   -0.8205 C   0  0  2  0  0  0  0  0  0  0  0  0
    4.0837   -3.8714    0.3892 C   0  0  0  0  0  0  0  0  0  0  0  0
    4.8289   -1.4740    0.6749 C   0  0  0  0  0  0  0  0  0  0  0  0
    2.7417   -2.3616    1.8356 C   0  0  0  0  0  0  0  0  0  0  0  0
    3.9948   -2.2695   -1.5249 C   0  0  0  0  0  0  0  0  0  0  0  0
    1.8709   -2.9900   -0.4178 C   0  0  0  0  0  0  0  0  0  0  0  0
    0.8437   -3.1315   -1.2725 C   0  0  0  0  0  0  0  0  0  0  0  0
    0.3997   -1.9446    1.2470 C   0  0  0  0  0  0  0  0  0  0  0  0
    3.9263    0.1720   -1.0748 C   0  0  0  0  0  0  0  0  0  0  0  0
   -0.7124   -2.0970    0.2561 C   0  0  0  0  0  0  0  0  0  0  0  0
   -0.4723   -2.6733   -0.9264 C   0  0  0  0  0  0  0  0  0  0  0  0
    3.5413    2.4212   -0.0084 C   0  0  0  0  0  0  0  0  0  0  0  0
   -2.8975   -1.1661   -0.3070 C   0  0  0  0  0  0  0  0  0  0  0  0
    3.9498    3.3224    0.9748 C   0  0  0  0  0  0  0  0  0  0  0  0
    2.4786    2.7441   -0.8523 C   0  0  0  0  0  0  0  0  0  0  0  0
    3.2958    4.5464    1.1141 C   0  0  0  0  0  0  0  0  0  0  0  0
    1.8245    3.9681   -0.7129 C   0  0  0  0  0  0  0  0  0  0  0  0
    2.2330    4.8693    0.2703 C   0  0  0  0  0  0  0  0  0  0  0  0
   -5.2482   -0.2444   -0.1885 C   0  0  0  0  0  0  0  0  0  0  0  0
   -6.3255    0.0945    0.6300 C   0  0  0  0  0  0  0  0  0  0  0  0
   -5.3346   -0.0578   -1.5681 C   0  0  0  0  0  0  0  0  0  0  0  0
   -7.4894    0.6201    0.0689 C   0  0  0  0  0  0  0  0  0  0  0  0
   -6.4986    0.4677   -2.1292 C   0  0  0  0  0  0  0  0  0  0  0  0
    0.5179    6.3302   -0.4910 C   0  0  0  0  0  0  0  0  0  0  0  0
   -7.5760    0.8066   -1.3108 C   0  0  0  0  0  0  0  0  0  0  0  0
   -5.7626    1.0097    2.7516 C   0  0  0  0  0  0  0  0  0  0  0  0
    4.7655   -2.9607    2.2173 H   0  0  0  0  0  0  0  0  0  0  0  0
    3.2021   -4.2718   -1.5185 H   0  0  0  0  0  0  0  0  0  0  0  0
    5.0904   -4.1799    0.0821 H   0  0  0  0  0  0  0  0  0  0  0  0
    3.6173   -4.7360    0.8779 H   0  0  0  0  0  0  0  0  0  0  0  0
    5.8836   -1.6985    0.4746 H   0  0  0  0  0  0  0  0  0  0  0  0
    4.8043   -0.6376    1.3751 H   0  0  0  0  0  0  0  0  0  0  0  0
    2.7216   -1.3798    2.3252 H   0  0  0  0  0  0  0  0  0  0  0  0
    2.4604   -3.0894    2.6090 H   0  0  0  0  0  0  0  0  0  0  0  0
    3.4379   -1.9540   -2.4139 H   0  0  0  0  0  0  0  0  0  0  0  0
    4.9813   -2.6017   -1.8718 H   0  0  0  0  0  0  0  0  0  0  0  0
    0.9791   -3.5716   -2.2550 H   0  0  0  0  0  0  0  0  0  0  0  0
   -1.2343   -2.8721   -1.6703 H   0  0  0  0  0  0  0  0  0  0  0  0
    4.9555    1.0233    0.5155 H   0  0  0  0  0  0  0  0  0  0  0  0
   -2.0949   -1.4151    1.5876 H   0  0  0  0  0  0  0  0  0  0  0  0
    4.7765    3.0832    1.6388 H   0  0  0  0  0  0  0  0  0  0  0  0
    2.0985    2.0755   -1.6147 H   0  0  0  0  0  0  0  0  0  0  0  0
   -4.0659   -0.8957    1.3756 H   0  0  0  0  0  0  0  0  0  0  0  0
    3.6187    5.2447    1.8815 H   0  0  0  0  0  0  0  0  0  0  0  0
    1.0033    4.1532   -1.3971 H   0  0  0  0  0  0  0  0  0  0  0  0
   -4.5484   -0.2934   -2.2704 H   0  0  0  0  0  0  0  0  0  0  0  0
   -8.3332    0.8856    0.7000 H   0  0  0  0  0  0  0  0  0  0  0  0
   -6.5675    0.6135   -3.2034 H   0  0  0  0  0  0  0  0  0  0  0  0
   -8.4823    1.2155   -1.7478 H   0  0  0  0  0  0  0  0  0  0  0  0
    0.8595    6.3722   -1.5308 H   0  0  0  0  0  0  0  0  0  0  0  0
   -0.3046    5.6203   -0.3525 H   0  0  0  0  0  0  0  0  0  0  0  0
    0.1283    7.3229   -0.2423 H   0  0  0  0  0  0  0  0  0  0  0  0
   -4.7489    1.2784    2.4381 H   0  0  0  0  0  0  0  0  0  0  0  0
   -6.4251    1.8762    2.6596 H   0  0  0  0  0  0  0  0  0  0  0  0
   -5.7335    0.7023    3.8006 H   0  0  0  0  0  0  0  0  0  0  0  0
  1 19  2  0  0  0  0
  2 20  2  0  0  0  0
  3 24  2  0  0  0  0
  4 29  1  0  0  0  0
  4 35  1  0  0  0  0
  5 31  1  0  0  0  0
  5 37  1  0  0  0  0
  6 14  1  0  0  0  0
  6 16  1  0  0  0  0
  6 20  1  0  0  0  0
  7 15  1  0  0  0  0
  7 17  1  0  0  0  0
  7 19  1  0  0  0  0
  8 20  1  0  0  0  0
  8 23  1  0  0  0  0
  8 50  1  0  0  0  0
  9 21  1  0  0  0  0
  9 24  1  0  0  0  0
  9 51  1  0  0  0  0
 10 24  1  0  0  0  0
 10 30  1  0  0  0  0
 10 54  1  0  0  0  0
 11 13  1  0  0  0  0
 11 14  1  0  0  0  0
 11 15  1  0  0  0  0
 11 38  1  0  0  0  0
 12 13  1  0  0  0  0
 12 16  1  0  0  0  0
 12 17  1  0  0  0  0
 12 39  1  0  0  0  0
 13 40  1  0  0  0  0
 13 41  1  0  0  0  0
 14 42  1  0  0  0  0
 14 43  1  0  0  0  0
 15 44  1  0  0  0  0
 15 45  1  0  0  0  0
 16 46  1  0  0  0  0
 16 47  1  0  0  0  0
 17 18  2  0  0  0  0
 18 22  1  0  0  0  0
 18 48  1  0  0  0  0
 19 21  1  0  0  0  0
 21 22  2  0  0  0  0
 22 49  1  0  0  0  0
 23 25  2  0  0  0  0
 23 26  1  0  0  0  0
 25 27  1  0  0  0  0
 25 52  1  0  0  0  0
 26 28  2  0  0  0  0
 26 53  1  0  0  0  0
 27 29  2  0  0  0  0
 27 55  1  0  0  0  0
 28 29  1  0  0  0  0
 28 56  1  0  0  0  0
 30 31  1  0  0  0  0
 30 32  2  0  0  0  0
 31 33  2  0  0  0  0
 32 34  1  0  0  0  0
 32 57  1  0  0  0  0
 33 36  1  0  0  0  0
 33 58  1  0  0  0  0
 34 36  2  0  0  0  0
 34 59  1  0  0  0  0
 35 61  1  0  0  0  0
 35 62  1  0  0  0  0
 35 63  1  0  0  0  0
 36 60  1  0  0  0  0
 37 64  1  0  0  0  0
 37 65  1  0  0  0  0
 37 66  1  0  0  0  0
M  END
> <PUBCHEM_COMPOUND_CID>
7673684

> <PUBCHEM_CONFORMER_RMSD>
1

> <PUBCHEM_CONFORMER_DIVERSEORDER>
1
60
79
70
80
86
40
102
67
47
65
42
103
55
52
51
26
64
69
57
101
99
94
66
104
83
81
85
76
23
39
68
100
45
77
27
87
32
25
89
97
74
13
46
36
14
34
43
93
92
35
21
61
88
62
98
95
84
20
31
44
28
90
56
33
22
17
18
63
96
73
78
38
48
71
41
37
54
50
30
53
19
16
49
58
82
3
75
24
10
29
59
8
6
4
91
72
5
9
15
11
7
12
2

> <PUBCHEM_MMFF94_PARTIAL_CHARGES>
48
1 -0.57
10 -0.55
12 0.14
14 0.3
15 0.3
16 0.3
17 -0.03
18 -0.15
19 0.62
2 -0.57
20 0.69
21 0.12
22 -0.15
23 0.12
24 0.69
25 -0.15
26 -0.15
27 -0.15
28 -0.15
29 0.08
3 -0.57
30 0.12
31 0.08
32 -0.15
33 -0.15
34 -0.15
35 0.28
36 -0.15
37 0.28
4 -0.36
48 0.15
49 0.15
5 -0.36
50 0.37
51 0.37
52 0.15
53 0.15
54 0.37
55 0.15
56 0.15
57 0.15
58 0.15
59 0.15
6 -0.66
60 0.15
7 -0.47
8 -0.55
9 -0.54

> <PUBCHEM_EFFECTIVE_ROTOR_COUNT>
10

> <PUBCHEM_PHARMACOPHORE_FEATURES>
13
1 1 acceptor
1 10 donor
1 2 acceptor
1 3 acceptor
1 4 acceptor
1 5 acceptor
1 8 donor
1 9 donor
6 23 25 26 27 28 29 rings
6 30 31 32 33 34 36 rings
6 6 11 12 13 14 16 rings
6 7 11 12 13 15 17 rings
6 7 17 18 19 21 22 rings

> <PUBCHEM_HEAVY_ATOM_COUNT>
37

> <PUBCHEM_ATOM_DEF_STEREO_COUNT>
2

> <PUBCHEM_ATOM_UDEF_STEREO_COUNT>
0

> <PUBCHEM_BOND_DEF_STEREO_COUNT>
0

> <PUBCHEM_BOND_UDEF_STEREO_COUNT>
0

> <PUBCHEM_ISOTOPIC_ATOM_COUNT>
0

> <PUBCHEM_COMPONENT_COUNT>
1

> <PUBCHEM_CACTVS_TAUTO_COUNT>
6

> <PUBCHEM_CONFORMER_ID>
0075175400000001

> <PUBCHEM_MMFF94_ENERGY>
135.7371

> <PUBCHEM_FEATURE_SELFOVERLAP>
67.58

> <PUBCHEM_SHAPE_FINGERPRINT>
10079526 769 17418377999909271595
10673678 19 18271810184999237659
10675989 125 18341615983429082544
11059845 2 17404275878858638528
11479125 193 18195251242028691393
12925494 130 18263923409546736547
13878862 14 18187910777583752743
13944108 23 18334017194397987180
14040221 15 18123445415353297719
15082195 135 18270950349916611919
15320291 9 17187844762403016009
15326921 28 16758305178131046536
15400415 2 17834675276849459333
15419008 47 17823416002754511679
15483637 11 17905607696824139156
16988056 13 18411135831773401508
21344244 78 17827054252930850946
21716022 299 14835021442384413382
21987440 362 17759532453758798252
22122407 14 18336830784908590417
23379529 103 11421835658495284686
394071 54 18413108355348522059
4173938 77 18341907293843321533
4487111 67 16466707036038146633
4760202 170 18265317432163314629
5109719 28 18263086685882986561
5951187 136 18129955575749895398
6086070 43 18337965557632875706

> <PUBCHEM_SHAPE_MULTIPOLES>
707.19
16.52
7.78
1.99
40.23
15.18
-0.53
0.27
0.59
-13.76
-0.29
1.77
-0.46
0

> <PUBCHEM_SHAPE_SELFOVERLAP>
1537.803

> <PUBCHEM_SHAPE_VOLUME>
377.1

> <PUBCHEM_COORDINATE_TYPE>
2
5
10

$$$$
