75536595
  -OEChem-12032416303D

 46 48  0     1  0  0  0  0  0999 V2000
    6.6236    0.2286    1.5214 S   0  0  0  0  0  0  0  0  0  0  0  0
   -7.2405    1.6373    0.9245 F   0  0  0  0  0  0  0  0  0  0  0  0
   -6.8979   -0.4907    0.6361 F   0  0  0  0  0  0  0  0  0  0  0  0
    0.8191    0.5379   -0.9840 O   0  0  0  0  0  0  0  0  0  0  0  0
   -0.3056   -2.4398    0.6815 O   0  0  0  0  0  0  0  0  0  0  0  0
    4.1869   -1.4074    1.2251 O   0  0  0  0  0  0  0  0  0  0  0  0
   -2.5522   -0.8153   -0.7983 N   0  0  0  0  0  0  0  0  0  0  0  0
    3.4619   -0.5850   -0.8196 N   0  0  0  0  0  0  0  0  0  0  0  0
   -3.5814    0.1371   -0.3854 C   0  0  0  0  0  0  0  0  0  0  0  0
   -1.2474   -0.4123   -0.2996 C   0  0  1  0  0  0  0  0  0  0  0  0
   -0.2005   -1.5081   -0.3775 C   0  0  1  0  0  0  0  0  0  0  0  0
   -4.7796    0.0540   -1.3390 C   0  0  0  0  0  0  0  0  0  0  0  0
   -4.0025   -0.1466    1.0617 C   0  0  0  0  0  0  0  0  0  0  0  0
    1.0833   -0.6939   -0.2920 C   0  0  1  0  0  0  0  0  0  0  0  0
   -0.6039    0.6786   -1.1398 C   0  0  0  0  0  0  0  0  0  0  0  0
   -5.9066    0.9857   -0.8969 C   0  0  0  0  0  0  0  0  0  0  0  0
   -5.1290    0.7852    1.5049 C   0  0  0  0  0  0  0  0  0  0  0  0
   -6.3067    0.7292    0.5464 C   0  0  0  0  0  0  0  0  0  0  0  0
    2.2782   -1.3892   -0.9198 C   0  0  0  0  0  0  0  0  0  0  0  0
    4.3346   -0.6601    0.2617 C   0  0  0  0  0  0  0  0  0  0  0  0
    5.5018    0.2584    0.2280 C   0  0  0  0  0  0  0  0  0  0  0  0
    5.8453    1.1837   -0.7331 C   0  0  0  0  0  0  0  0  0  0  0  0
    7.0455    1.8770   -0.4033 C   0  0  0  0  0  0  0  0  0  0  0  0
    7.5734    1.4555    0.7972 C   0  0  0  0  0  0  0  0  0  0  0  0
   -3.2010    1.1654   -0.4485 H   0  0  0  0  0  0  0  0  0  0  0  0
   -1.3005   -0.0875    0.7469 H   0  0  0  0  0  0  0  0  0  0  0  0
   -0.2639   -2.0476   -1.3308 H   0  0  0  0  0  0  0  0  0  0  0  0
   -5.1602   -0.9753   -1.3784 H   0  0  0  0  0  0  0  0  0  0  0  0
   -4.4713    0.3175   -2.3583 H   0  0  0  0  0  0  0  0  0  0  0  0
   -3.1670   -0.0252    1.7592 H   0  0  0  0  0  0  0  0  0  0  0  0
   -4.3448   -1.1856    1.1591 H   0  0  0  0  0  0  0  0  0  0  0  0
   -2.7858   -1.7482   -0.4600 H   0  0  0  0  0  0  0  0  0  0  0  0
    1.3132   -0.4396    0.7511 H   0  0  0  0  0  0  0  0  0  0  0  0
   -0.8239    0.5661   -2.2077 H   0  0  0  0  0  0  0  0  0  0  0  0
   -0.9016    1.6851   -0.8308 H   0  0  0  0  0  0  0  0  0  0  0  0
   -6.7750    0.8412   -1.5496 H   0  0  0  0  0  0  0  0  0  0  0  0
   -5.5959    2.0310   -1.0129 H   0  0  0  0  0  0  0  0  0  0  0  0
   -5.4612    0.5021    2.5102 H   0  0  0  0  0  0  0  0  0  0  0  0
   -4.7583    1.8150    1.5739 H   0  0  0  0  0  0  0  0  0  0  0  0
    2.1090   -1.5544   -1.9896 H   0  0  0  0  0  0  0  0  0  0  0  0
    2.4558   -2.3590   -0.4427 H   0  0  0  0  0  0  0  0  0  0  0  0
   -0.2517   -1.9546    1.5223 H   0  0  0  0  0  0  0  0  0  0  0  0
    3.6403    0.0676   -1.5753 H   0  0  0  0  0  0  0  0  0  0  0  0
    5.2817    1.3740   -1.6369 H   0  0  0  0  0  0  0  0  0  0  0  0
    7.4987    2.6460   -1.0153 H   0  0  0  0  0  0  0  0  0  0  0  0
    8.4714    1.8094    1.2836 H   0  0  0  0  0  0  0  0  0  0  0  0
  1 21  1  0  0  0  0
  1 24  1  0  0  0  0
  2 18  1  0  0  0  0
  3 18  1  0  0  0  0
  4 14  1  0  0  0  0
  4 15  1  0  0  0  0
  5 11  1  0  0  0  0
  5 42  1  0  0  0  0
  6 20  2  0  0  0  0
  7  9  1  0  0  0  0
  7 10  1  0  0  0  0
  7 32  1  0  0  0  0
  8 19  1  0  0  0  0
  8 20  1  0  0  0  0
  8 43  1  0  0  0  0
  9 12  1  0  0  0  0
  9 13  1  0  0  0  0
  9 25  1  0  0  0  0
 10 11  1  0  0  0  0
 10 15  1  0  0  0  0
 10 26  1  0  0  0  0
 11 14  1  0  0  0  0
 11 27  1  0  0  0  0
 12 16  1  0  0  0  0
 12 28  1  0  0  0  0
 12 29  1  0  0  0  0
 13 17  1  0  0  0  0
 13 30  1  0  0  0  0
 13 31  1  0  0  0  0
 14 19  1  0  0  0  0
 14 33  1  0  0  0  0
 15 34  1  0  0  0  0
 15 35  1  0  0  0  0
 16 18  1  0  0  0  0
 16 36  1  0  0  0  0
 16 37  1  0  0  0  0
 17 18  1  0  0  0  0
 17 38  1  0  0  0  0
 17 39  1  0  0  0  0
 19 40  1  0  0  0  0
 19 41  1  0  0  0  0
 20 21  1  0  0  0  0
 21 22  2  0  0  0  0
 22 23  1  0  0  0  0
 22 44  1  0  0  0  0
 23 24  2  0  0  0  0
 23 45  1  0  0  0  0
 24 46  1  0  0  0  0
M  END
> <PUBCHEM_COMPOUND_CID>
75536595

> <PUBCHEM_CONFORMER_RMSD>
1

> <PUBCHEM_CONFORMER_DIVERSEORDER>
1
96
114
11
29
112
2
95
79
100
61
44
20
98
86
78
39
59
92
111
50
60
75
62
45
83
5
65
28
54
32
36
37
87
99
108
34
80
55
89
97
31
104
41
3
109
4
30
93
12
63
40
25
101
102
113
35
46
49
52
19
21
8
69
82
43
26
53
9
66
24
81
33
71
110
56
57
64
94
88
70
103
74
23
84
13
91
107
17
42
10
51
72
68
22
106
76
7
73
90
27
38
77
6
47
48
15
58
85
105
16
67
18
14

> <PUBCHEM_MMFF94_PARTIAL_CHARGES>
26
1 -0.08
10 0.27
11 0.28
14 0.28
15 0.28
18 0.68
19 0.3
2 -0.34
20 0.71
21 -0.05
22 -0.15
23 -0.15
24 -0.11
3 -0.34
32 0.36
4 -0.56
42 0.4
43 0.37
44 0.15
45 0.15
46 0.15
5 -0.68
6 -0.57
7 -0.9
8 -0.73
9 0.27

> <PUBCHEM_EFFECTIVE_ROTOR_COUNT>
8.2

> <PUBCHEM_PHARMACOPHORE_FEATURES>
10
1 4 acceptor
1 5 acceptor
1 5 donor
1 6 acceptor
1 7 cation
1 7 donor
1 8 donor
5 1 21 22 23 24 rings
5 4 10 11 14 15 rings
6 9 12 13 16 17 18 rings

> <PUBCHEM_HEAVY_ATOM_COUNT>
24

> <PUBCHEM_ATOM_DEF_STEREO_COUNT>
3

> <PUBCHEM_ATOM_UDEF_STEREO_COUNT>
0

> <PUBCHEM_BOND_DEF_STEREO_COUNT>
0

> <PUBCHEM_BOND_UDEF_STEREO_COUNT>
0

> <PUBCHEM_ISOTOPIC_ATOM_COUNT>
0

> <PUBCHEM_COMPONENT_COUNT>
1

> <PUBCHEM_CACTVS_TAUTO_COUNT>
2

> <PUBCHEM_CONFORMER_ID>
048098D300000001

> <PUBCHEM_MMFF94_ENERGY>
34.4653

> <PUBCHEM_FEATURE_SELFOVERLAP>
50.747

> <PUBCHEM_SHAPE_FINGERPRINT>
10 15 17749110006427484228
106641 1 18261114106030029683
10670039 82 13973694905472486314
10906281 52 18340495542630686878
11315181 36 18344143705738465183
11524674 6 15140681392960305865
11991303 11 12679167332452771053
12236239 1 18059857221523485999
125118 31 18342459192577228528
12596602 18 18333734606549544995
12670543 26 12247683759602282014
12760667 363 8358263652632900126
13533116 47 18263361404934883498
13540713 5 17462016654222194190
13668630 136 8286200543598734840
13673619 4 10953454133512783686
13685833 64 12179842806190363662
13782708 43 11458424643719179366
13862211 1 8070029969350985084
14251752 14 12607406581031535716
14251764 18 18335982051292635319
14556957 393 12894801397160963858
14849402 71 18340488975394303497
14933364 13 15626224623641851297
15048467 5 18060419118666295270
15183329 4 13470696944784477054
15188451 53 13839981123222924598
15348495 7 16950289554351095744
15419008 91 12974155367477502214
15706992 2 18130801082510956865
15716309 27 14417853652540279101
1577012 14 17632292363554061239
16994733 274 18060417984821407577
17093844 174 16732978714100909645
1768 124 13118271569698357176
17980427 23 18262235646434570726
190975 80 17313387863265328082
2026 5 11746929893589363921
20281389 69 18131349683284415312
21130935 74 18114748131806135531
21150785 3 14549018792896460204
21267235 1 9655571925157077535
21424621 283 18130512950646024243
21637258 2 12612753535888993350
220451 1 15913327975148783879
22061861 79 11671780468389453584
221357 26 13542467570988919578
2215653 11 12031789180369906028
22224240 67 18187083953630000691
22956985 138 12614685275742556632
23035841 295 11530485532340102761
23081809 10 17703497827105822407
23559900 14 10159396726730897439
23576562 1 13901319591788070897
29717793 49 10519985972107691730
3383291 50 14418142820278944697
4073 2 18202285822448930134
4340502 62 16877660158859300850
445580 37 16272215175845403153
465052 167 11386372530360285866
5104073 3 17823972536907344656
543368 44 17917712388349089649
559249 180 12684808910235690795
5758199 1 18342177765161292271
59682541 35 18041000677983499673
59682541 52 14476971077948081764
59755656 215 11671788156455228092
6438161 24 9799694771254860100

> <PUBCHEM_SHAPE_MULTIPOLES>
455.64
22.91
1.66
1.36
4.3
0.25
-0.19
-13.6
-5.94
1.03
-0.13
-0.28
-0.12
-0.71

> <PUBCHEM_SHAPE_SELFOVERLAP>
941.446

> <PUBCHEM_SHAPE_VOLUME>
262.8

> <PUBCHEM_COORDINATE_TYPE>
2
5
10

$$$$
