11883385
  -OEChem-12032416373D

 50 53  0     1  0  0  0  0  0999 V2000
   -4.1416    3.4165   -0.1101 F   0  0  0  0  0  0  0  0  0  0  0  0
   -6.3079    3.4446   -0.2101 F   0  0  0  0  0  0  0  0  0  0  0  0
   -5.1577    2.5986   -1.8500 F   0  0  0  0  0  0  0  0  0  0  0  0
    0.9409   -1.5977    0.8925 O   0  0  0  0  0  0  0  0  0  0  0  0
    2.0731   -3.6403   -1.0949 O   0  0  0  0  0  0  0  0  0  0  0  0
   -1.2972   -2.7069   -0.3186 O   0  0  0  0  0  0  0  0  0  0  0  0
    5.6679   -0.8915    1.1645 O   0  0  0  0  0  0  0  0  0  0  0  0
   -1.7409   -0.5797   -1.0315 O   0  0  0  0  0  0  0  0  0  0  0  0
    3.7269   -0.5374   -0.0545 N   0  0  0  0  0  0  0  0  0  0  0  0
   -3.2201   -1.7434    0.3606 N   0  0  0  0  0  0  0  0  0  0  0  0
    2.2267   -2.2085   -1.0041 C   0  0  1  0  0  0  0  0  0  0  0  0
    0.8945   -1.6522   -0.5431 C   0  0  1  0  0  0  0  0  0  0  0  0
    3.1739   -1.8584    0.1197 C   0  0  2  0  0  0  0  0  0  0  0  0
   -0.0815   -2.6951   -1.0322 C   0  0  1  0  0  0  0  0  0  0  0  0
    2.2673   -1.9220    1.3368 C   0  0  0  0  0  0  0  0  0  0  0  0
    0.7002   -3.9760   -0.8460 C   0  0  0  0  0  0  0  0  0  0  0  0
    4.9460   -0.1606    0.4914 C   0  0  0  0  0  0  0  0  0  0  0  0
   -2.0722   -1.5676   -0.3875 C   0  0  0  0  0  0  0  0  0  0  0  0
    5.3638    1.2433    0.2433 C   0  0  0  0  0  0  0  0  0  0  0  0
    6.2014    1.8589    1.1502 C   0  0  0  0  0  0  0  0  0  0  0  0
    4.9014    1.8861   -0.8862 C   0  0  0  0  0  0  0  0  0  0  0  0
   -4.2786   -0.8278    0.5587 C   0  0  0  0  0  0  0  0  0  0  0  0
    6.5940    3.1769    0.9174 C   0  0  0  0  0  0  0  0  0  0  0  0
    5.2942    3.2042   -1.1190 C   0  0  0  0  0  0  0  0  0  0  0  0
   -4.2209    0.4191   -0.0433 C   0  0  0  0  0  0  0  0  0  0  0  0
   -5.3540   -1.1954    1.3519 C   0  0  0  0  0  0  0  0  0  0  0  0
    6.1405    3.8495   -0.2173 C   0  0  0  0  0  0  0  0  0  0  0  0
   -5.2661    1.3219    0.1530 C   0  0  0  0  0  0  0  0  0  0  0  0
   -6.3991   -0.2927    1.5480 C   0  0  0  0  0  0  0  0  0  0  0  0
   -6.3552    0.9659    0.9486 C   0  0  0  0  0  0  0  0  0  0  0  0
   -5.2195    2.6678   -0.4884 C   0  0  0  0  0  0  0  0  0  0  0  0
    2.5330   -1.8441   -1.9899 H   0  0  0  0  0  0  0  0  0  0  0  0
    0.7104   -0.6389   -0.9098 H   0  0  0  0  0  0  0  0  0  0  0  0
    3.9966   -2.5743    0.2217 H   0  0  0  0  0  0  0  0  0  0  0  0
   -0.2756   -2.5570   -2.1045 H   0  0  0  0  0  0  0  0  0  0  0  0
    2.5555   -1.2391    2.1418 H   0  0  0  0  0  0  0  0  0  0  0  0
    2.2309   -2.9382    1.7444 H   0  0  0  0  0  0  0  0  0  0  0  0
    0.6115   -4.3740    0.1712 H   0  0  0  0  0  0  0  0  0  0  0  0
    0.3830   -4.7610   -1.5390 H   0  0  0  0  0  0  0  0  0  0  0  0
    3.1330    0.1530   -0.5017 H   0  0  0  0  0  0  0  0  0  0  0  0
   -3.3181   -2.6417    0.8275 H   0  0  0  0  0  0  0  0  0  0  0  0
    6.5592    1.3511    2.0408 H   0  0  0  0  0  0  0  0  0  0  0  0
    4.2705    1.4089   -1.6287 H   0  0  0  0  0  0  0  0  0  0  0  0
    7.2522    3.6799    1.6198 H   0  0  0  0  0  0  0  0  0  0  0  0
    4.9478    3.7260   -2.0065 H   0  0  0  0  0  0  0  0  0  0  0  0
   -3.4073    0.7558   -0.6697 H   0  0  0  0  0  0  0  0  0  0  0  0
   -5.3984   -2.1733    1.8235 H   0  0  0  0  0  0  0  0  0  0  0  0
    6.4476    4.8752   -0.3995 H   0  0  0  0  0  0  0  0  0  0  0  0
   -7.2470   -0.5699    2.1677 H   0  0  0  0  0  0  0  0  0  0  0  0
   -7.1788    1.6552    1.1131 H   0  0  0  0  0  0  0  0  0  0  0  0
  1 31  1  0  0  0  0
  2 31  1  0  0  0  0
  3 31  1  0  0  0  0
  4 12  1  0  0  0  0
  4 15  1  0  0  0  0
  5 11  1  0  0  0  0
  5 16  1  0  0  0  0
  6 14  1  0  0  0  0
  6 18  1  0  0  0  0
  7 17  2  0  0  0  0
  8 18  2  0  0  0  0
  9 13  1  0  0  0  0
  9 17  1  0  0  0  0
  9 40  1  0  0  0  0
 10 18  1  0  0  0  0
 10 22  1  0  0  0  0
 10 41  1  0  0  0  0
 11 12  1  0  0  0  0
 11 13  1  0  0  0  0
 11 32  1  0  0  0  0
 12 14  1  0  0  0  0
 12 33  1  0  0  0  0
 13 15  1  0  0  0  0
 13 34  1  0  0  0  0
 14 16  1  0  0  0  0
 14 35  1  0  0  0  0
 15 36  1  0  0  0  0
 15 37  1  0  0  0  0
 16 38  1  0  0  0  0
 16 39  1  0  0  0  0
 17 19  1  0  0  0  0
 19 20  2  0  0  0  0
 19 21  1  0  0  0  0
 20 23  1  0  0  0  0
 20 42  1  0  0  0  0
 21 24  2  0  0  0  0
 21 43  1  0  0  0  0
 22 25  1  0  0  0  0
 22 26  2  0  0  0  0
 23 27  2  0  0  0  0
 23 44  1  0  0  0  0
 24 27  1  0  0  0  0
 24 45  1  0  0  0  0
 25 28  2  0  0  0  0
 25 46  1  0  0  0  0
 26 29  1  0  0  0  0
 26 47  1  0  0  0  0
 27 48  1  0  0  0  0
 28 30  1  0  0  0  0
 28 31  1  0  0  0  0
 29 30  2  0  0  0  0
 29 49  1  0  0  0  0
 30 50  1  0  0  0  0
M  END
> <PUBCHEM_COMPOUND_CID>
11883385

> <PUBCHEM_CONFORMER_RMSD>
1

> <PUBCHEM_CONFORMER_DIVERSEORDER>
1
69
71
67
64
50
83
66
21
18
2
59
74
45
47
11
22
75
60
70
16
40
8
58
72
80
29
6
28
15
86
42
26
77
61
46
34
30
3
79
53
19
68
10
52
23
25
14
38
81
65
63
84
7
57
13
48
51
76
24
44
12
33
62
5
37
31
85
56
54
36
4
27
73
20
32
43
49
35
9
55
39
78
87
41
82
17

> <PUBCHEM_MMFF94_PARTIAL_CHARGES>
42
1 -0.34
10 -0.55
11 0.28
12 0.28
13 0.3
14 0.28
15 0.28
16 0.28
17 0.54
18 0.78
19 0.09
2 -0.34
20 -0.15
21 -0.15
22 0.12
23 -0.15
24 -0.15
25 -0.15
26 -0.15
27 -0.15
28 -0.14
29 -0.15
3 -0.34
30 -0.15
31 1.16
4 -0.56
40 0.37
41 0.37
42 0.15
43 0.15
44 0.15
45 0.15
46 0.15
47 0.15
48 0.15
49 0.15
5 -0.56
50 0.15
6 -0.43
7 -0.57
8 -0.57
9 -0.73

> <PUBCHEM_EFFECTIVE_ROTOR_COUNT>
9.2

> <PUBCHEM_PHARMACOPHORE_FEATURES>
10
1 10 donor
1 4 acceptor
1 5 acceptor
1 7 acceptor
1 8 acceptor
1 9 donor
5 4 11 12 13 15 rings
5 5 11 12 14 16 rings
6 19 20 21 23 24 27 rings
6 22 25 26 28 29 30 rings

> <PUBCHEM_HEAVY_ATOM_COUNT>
31

> <PUBCHEM_ATOM_DEF_STEREO_COUNT>
4

> <PUBCHEM_ATOM_UDEF_STEREO_COUNT>
0

> <PUBCHEM_BOND_DEF_STEREO_COUNT>
0

> <PUBCHEM_BOND_UDEF_STEREO_COUNT>
0

> <PUBCHEM_ISOTOPIC_ATOM_COUNT>
0

> <PUBCHEM_COMPONENT_COUNT>
1

> <PUBCHEM_CACTVS_TAUTO_COUNT>
4

> <PUBCHEM_CONFORMER_ID>
00B5537900000001

> <PUBCHEM_MMFF94_ENERGY>
85.243

> <PUBCHEM_FEATURE_SELFOVERLAP>
51.464

> <PUBCHEM_SHAPE_FINGERPRINT>
10554248 39 17489588913922385918
10673678 19 18341898484955016074
10939801 23 18118410772484297196
11135609 201 18341327894207477667
11505856 67 17983565588058257390
11796584 16 10663820724330830175
11828042 107 18049693283806978132
12422481 6 17821726126518396148
12758862 65 12757425098982996396
12975358 362 18267604454503076025
13782708 43 9943803378923652515
14202776 33 17916578894703270047
14251764 75 18340488984284047904
14428016 30 18335419050243101405
14565420 104 18334859428641837282
14739800 52 17897160222355444587
14790565 3 18339642368862559718
15320291 9 17835514925617644200
15338160 23 18193841676232106331
15575132 122 18412266167964645161
16708801 149 18053368912834410985
18393751 57 18334300877236015355
19302320 297 18408324371998833536
20058555 10 18410575080632511897
20691028 202 18343018912720264856
20715895 44 18342171155734034050
21033648 29 18263933125401128595
21302155 148 18409730685561078524
21585482 111 18334575728945965620
21599406 157 12823292390457678248
21647283 7 18259703389044969385
22033318 11 18040984182037976384
23191077 185 18340757243515422846
23559900 14 17905896873226142855
23569914 2 17753576145408862869
23569943 247 7997972354693503433
2748736 6 18341603828475909896
2838139 119 18411976988254533214
373842 8 18409451345178319837
392239 28 16226320547032298882
4258327 124 18130780158484988189
437795 96 18042398037447054405
5104073 3 17894623730128219674
5109719 28 18339939202441984611
5219985 13 18343022237436648958
5364581 5 18334864939527177441
550186 72 18339079406251427693
5718773 13 7925644275645016098
57724786 102 18410285926802908670
6034566 193 18202558489011745047
6376802 137 16739747551604098826
6697151 62 17616239287852843015
7808743 9 18341893051568685706
7970288 3 8790614697376023604

> <PUBCHEM_SHAPE_MULTIPOLES>
576.84
20.37
5.39
1.32
1.84
1.27
-0.05
24.71
-5.25
-2.32
1.89
0.19
0
1.14

> <PUBCHEM_SHAPE_SELFOVERLAP>
1259.98

> <PUBCHEM_SHAPE_VOLUME>
313.1

> <PUBCHEM_COORDINATE_TYPE>
2
5
10

$$$$
