11884075
  -OEChem-12032416153D

 57 61  0     1  0  0  0  0  0999 V2000
    3.8265    0.1823   -2.3054 S   0  0  0  0  0  0  0  0  0  0  0  0
   -0.4855    1.5594   -0.8666 O   0  0  0  0  0  0  0  0  0  0  0  0
    1.4134    1.9120    1.5274 O   0  0  0  0  0  0  0  0  0  0  0  0
   -2.1424    1.5098    1.3573 O   0  0  0  0  0  0  0  0  0  0  0  0
    4.1531    1.4192   -2.9890 O   0  0  0  0  0  0  0  0  0  0  0  0
    3.9755   -1.0893   -2.9868 O   0  0  0  0  0  0  0  0  0  0  0  0
   -2.6917   -0.6009    0.6694 O   0  0  0  0  0  0  0  0  0  0  0  0
   -8.9849   -1.3889   -0.7812 O   0  0  0  0  0  0  0  0  0  0  0  0
    2.2536    0.2832   -1.6744 N   0  0  0  0  0  0  0  0  0  0  0  0
   -4.2948    1.0983    0.8231 N   0  0  0  0  0  0  0  0  0  0  0  0
    3.9980   -2.0874   -0.3803 N   0  0  0  0  0  0  0  0  0  0  0  0
    1.3280    0.8918    0.5106 C   0  0  1  0  0  0  0  0  0  0  0  0
   -0.1450    0.6826    0.2201 C   0  0  1  0  0  0  0  0  0  0  0  0
    1.8853    1.4145   -0.7901 C   0  0  2  0  0  0  0  0  0  0  0  0
   -0.7987    1.1124    1.5114 C   0  0  1  0  0  0  0  0  0  0  0  0
    0.7091    2.1661   -1.3825 C   0  0  0  0  0  0  0  0  0  0  0  0
    0.0864    2.2568    1.9506 C   0  0  0  0  0  0  0  0  0  0  0  0
    4.8048    0.0971   -0.8356 C   0  0  0  0  0  0  0  0  0  0  0  0
   -3.0307    0.5494    0.9191 C   0  0  0  0  0  0  0  0  0  0  0  0
    4.7720   -1.0389   -0.0420 C   0  0  0  0  0  0  0  0  0  0  0  0
    5.5893    1.2035   -0.5251 C   0  0  0  0  0  0  0  0  0  0  0  0
    5.5733   -1.0490    1.1189 C   0  0  0  0  0  0  0  0  0  0  0  0
    6.3761    1.1865    0.6199 C   0  0  0  0  0  0  0  0  0  0  0  0
    6.3694    0.0631    1.4415 C   0  0  0  0  0  0  0  0  0  0  0  0
   -5.4902    0.4642    0.4147 C   0  0  0  0  0  0  0  0  0  0  0  0
    5.5476   -2.1929    1.9282 C   0  0  0  0  0  0  0  0  0  0  0  0
    4.0017   -3.1721    0.4277 C   0  0  0  0  0  0  0  0  0  0  0  0
    4.7510   -3.2749    1.5821 C   0  0  0  0  0  0  0  0  0  0  0  0
   -6.6688    1.1922    0.3847 C   0  0  0  0  0  0  0  0  0  0  0  0
   -5.4602   -0.8731    0.0522 C   0  0  0  0  0  0  0  0  0  0  0  0
   -7.8486    0.5666   -0.0185 C   0  0  0  0  0  0  0  0  0  0  0  0
   -6.6400   -1.4986   -0.3510 C   0  0  0  0  0  0  0  0  0  0  0  0
   -7.8342   -0.7788   -0.3863 C   0  0  0  0  0  0  0  0  0  0  0  0
   -8.8985   -2.7661   -1.1437 C   0  0  0  0  0  0  0  0  0  0  0  0
    1.8247   -0.0036    0.8968 H   0  0  0  0  0  0  0  0  0  0  0  0
   -0.3714   -0.3400   -0.0932 H   0  0  0  0  0  0  0  0  0  0  0  0
    2.7299    2.0962   -0.6564 H   0  0  0  0  0  0  0  0  0  0  0  0
   -0.7264    0.3088    2.2566 H   0  0  0  0  0  0  0  0  0  0  0  0
    0.6793    2.1495   -2.4763 H   0  0  0  0  0  0  0  0  0  0  0  0
    0.7071    3.2112   -1.0539 H   0  0  0  0  0  0  0  0  0  0  0  0
   -0.1989    3.2067    1.4846 H   0  0  0  0  0  0  0  0  0  0  0  0
    0.0726    2.4009    3.0351 H   0  0  0  0  0  0  0  0  0  0  0  0
    1.6319   -0.5341   -1.6880 H   0  0  0  0  0  0  0  0  0  0  0  0
    5.6093    2.0929   -1.1468 H   0  0  0  0  0  0  0  0  0  0  0  0
   -4.3782    2.0797    1.0768 H   0  0  0  0  0  0  0  0  0  0  0  0
    6.9915    2.0442    0.8735 H   0  0  0  0  0  0  0  0  0  0  0  0
    6.9888    0.0602    2.3358 H   0  0  0  0  0  0  0  0  0  0  0  0
    6.1485   -2.2467    2.8330 H   0  0  0  0  0  0  0  0  0  0  0  0
    3.3599   -3.9861    0.1069 H   0  0  0  0  0  0  0  0  0  0  0  0
    4.7190   -4.1669    2.1964 H   0  0  0  0  0  0  0  0  0  0  0  0
   -6.6913    2.2406    0.6690 H   0  0  0  0  0  0  0  0  0  0  0  0
   -4.5755   -1.4933    0.0542 H   0  0  0  0  0  0  0  0  0  0  0  0
   -8.7759    1.1325   -0.0443 H   0  0  0  0  0  0  0  0  0  0  0  0
   -6.5587   -2.5454   -0.6238 H   0  0  0  0  0  0  0  0  0  0  0  0
   -8.5933   -3.3874   -0.2948 H   0  0  0  0  0  0  0  0  0  0  0  0
   -9.9049   -3.0887   -1.4302 H   0  0  0  0  0  0  0  0  0  0  0  0
   -8.2551   -2.9126   -2.0179 H   0  0  0  0  0  0  0  0  0  0  0  0
  1  5  2  0  0  0  0
  1  6  2  0  0  0  0
  1  9  1  0  0  0  0
  1 18  1  0  0  0  0
  2 13  1  0  0  0  0
  2 16  1  0  0  0  0
  3 12  1  0  0  0  0
  3 17  1  0  0  0  0
  4 15  1  0  0  0  0
  4 19  1  0  0  0  0
  7 19  2  0  0  0  0
  8 33  1  0  0  0  0
  8 34  1  0  0  0  0
  9 14  1  0  0  0  0
  9 43  1  0  0  0  0
 10 19  1  0  0  0  0
 10 25  1  0  0  0  0
 10 45  1  0  0  0  0
 11 20  1  0  0  0  0
 11 27  2  0  0  0  0
 12 13  1  0  0  0  0
 12 14  1  0  0  0  0
 12 35  1  0  0  0  0
 13 15  1  0  0  0  0
 13 36  1  0  0  0  0
 14 16  1  0  0  0  0
 14 37  1  0  0  0  0
 15 17  1  0  0  0  0
 15 38  1  0  0  0  0
 16 39  1  0  0  0  0
 16 40  1  0  0  0  0
 17 41  1  0  0  0  0
 17 42  1  0  0  0  0
 18 20  1  0  0  0  0
 18 21  2  0  0  0  0
 20 22  2  0  0  0  0
 21 23  1  0  0  0  0
 21 44  1  0  0  0  0
 22 24  1  0  0  0  0
 22 26  1  0  0  0  0
 23 24  2  0  0  0  0
 23 46  1  0  0  0  0
 24 47  1  0  0  0  0
 25 29  2  0  0  0  0
 25 30  1  0  0  0  0
 26 28  2  0  0  0  0
 26 48  1  0  0  0  0
 27 28  1  0  0  0  0
 27 49  1  0  0  0  0
 28 50  1  0  0  0  0
 29 31  1  0  0  0  0
 29 51  1  0  0  0  0
 30 32  2  0  0  0  0
 30 52  1  0  0  0  0
 31 33  2  0  0  0  0
 31 53  1  0  0  0  0
 32 33  1  0  0  0  0
 32 54  1  0  0  0  0
 34 55  1  0  0  0  0
 34 56  1  0  0  0  0
 34 57  1  0  0  0  0
M  END
> <PUBCHEM_COMPOUND_CID>
11884075

> <PUBCHEM_CONFORMER_RMSD>
1

> <PUBCHEM_CONFORMER_DIVERSEORDER>
1
10
222
86
150
246
2
234
184
179
171
56
108
139
64
167
91
135
236
76
138
73
165
193
85
51
67
61
244
166
14
66
154
68
199
155
42
89
93
241
174
172
192
33
104
122
82
146
182
237
159
49
97
160
105
47
17
220
27
239
53
249
57
209
125
71
70
227
106
58
5
175
218
247
59
120
62
99
123
119
170
52
92
137
232
210
32
28
177
26
128
25
163
195
158
132
103
126
200
134
131
16
187
20
18
21
230
118
111
100
69
30
15
113
207
212
206
136
208
248
164
168
198
74
235
142
157
127
223
140
148
180
144
44
129
151
50
169
112
250
13
201
4
228
6
233
176
153
161
40
24
101
231
72
211
31
81
41
3
94
133
96
186
188
215
55
245
22
39
219
226
84
124
204
149
152
11
162
60
252
217
229
238
109
225
190
115
78
7
102
75
88
216
191
95
141
48
45
107
23
202
185
37
121
196
98
54
87
243
38
46
203
221
189
147
114
130
116
181
19
79
214
194
251
117
173
77
29
80
242
90
63
36
145
43
156
12
224
8
178
143
213
110
65
205
9
34
183
35
240
83
197

> <PUBCHEM_MMFF94_PARTIAL_CHARGES>
45
1 1.45
10 -0.55
11 -0.62
12 0.28
13 0.28
14 0.36
15 0.28
16 0.28
17 0.28
18 -0.01
19 0.78
2 -0.56
20 0.31
21 -0.15
23 -0.15
24 -0.15
25 0.12
26 -0.15
27 0.16
28 -0.15
29 -0.15
3 -0.56
30 -0.15
31 -0.15
32 -0.15
33 0.08
34 0.28
4 -0.43
43 0.42
44 0.15
45 0.37
46 0.15
47 0.15
48 0.15
49 0.15
5 -0.65
50 0.15
51 0.15
52 0.15
53 0.15
54 0.15
6 -0.65
7 -0.57
8 -0.36
9 -0.91

> <PUBCHEM_EFFECTIVE_ROTOR_COUNT>
9.2

> <PUBCHEM_PHARMACOPHORE_FEATURES>
14
1 10 donor
1 11 acceptor
1 2 acceptor
1 3 acceptor
1 5 acceptor
1 6 acceptor
1 7 acceptor
1 8 acceptor
1 9 donor
5 2 12 13 14 16 rings
5 3 12 13 15 17 rings
6 11 20 22 26 27 28 rings
6 18 20 21 22 23 24 rings
6 25 29 30 31 32 33 rings

> <PUBCHEM_HEAVY_ATOM_COUNT>
34

> <PUBCHEM_ATOM_DEF_STEREO_COUNT>
4

> <PUBCHEM_ATOM_UDEF_STEREO_COUNT>
0

> <PUBCHEM_BOND_DEF_STEREO_COUNT>
0

> <PUBCHEM_BOND_UDEF_STEREO_COUNT>
0

> <PUBCHEM_ISOTOPIC_ATOM_COUNT>
0

> <PUBCHEM_COMPONENT_COUNT>
1

> <PUBCHEM_CACTVS_TAUTO_COUNT>
2

> <PUBCHEM_CONFORMER_ID>
00B5562B00000001

> <PUBCHEM_MMFF94_ENERGY>
99.369

> <PUBCHEM_FEATURE_SELFOVERLAP>
71.818

> <PUBCHEM_SHAPE_FINGERPRINT>
10554248 39 17095252418694481541
11135609 127 17677899113832334092
11578080 2 12902701393155394598
12013929 112 12468627271403900379
12342043 65 15696615251200589876
12373685 5 17968097589726688766
13782708 43 18272653446462464405
14068700 675 18412267233744911977
14068700 686 16486144894204297033
14117953 113 17676494930673677978
14347332 77 18334858269264131645
15119646 104 18259987045996713859
15183329 4 18114191826013516309
15357212 105 11886802126533417778
17134984 74 18336834172741280318
19315092 285 18192424183296310058
19841028 212 18263640680429630650
21033648 29 14045441376743496870
21130935 74 16701754756703399951
21133410 58 17313101964383457554
21223535 225 16153982436323012197
21458453 9 14405177391879643837
21895439 516 17095529522139037499
22149856 69 16558205847133004041
3383291 50 17561366219170264431
3711267 37 11241967049956834239
394071 54 14404888190367550722
4066623 53 16153703206812175396
42767 39 18113611266762753039
437795 51 13973963212047597382
57359948 33 13912326785598412478
57816373 69 18194689164175241366
59682541 52 17676210182098009413
6081469 158 14562525164669427848
8988823 20 18409731751462210016

> <PUBCHEM_SHAPE_MULTIPOLES>
647.53
24.87
2.9
2.14
53.1
2.16
-1.11
14.6
-2.81
-1.94
0.51
-3.31
-0.39
-3.62

> <PUBCHEM_SHAPE_SELFOVERLAP>
1410.647

> <PUBCHEM_SHAPE_VOLUME>
353.7

> <PUBCHEM_COORDINATE_TYPE>
2
5
10

$$$$
