40533593
  -OEChem-12032416283D

 56 60  0     1  0  0  0  0  0999 V2000
   -0.7658    0.5700    2.2069 O   0  0  0  0  0  0  0  0  0  0  0  0
   -2.0806    3.2482    1.3635 O   0  0  0  0  0  0  0  0  0  0  0  0
    6.0756   -3.3247    1.2546 O   0  0  0  0  0  0  0  0  0  0  0  0
   -3.5390   -0.1169    1.0490 N   0  0  0  0  0  0  0  0  0  0  0  0
    0.4775    2.8669   -0.3480 N   0  0  0  0  0  0  0  0  0  0  0  0
    2.1968    1.3104   -0.4796 N   0  0  0  0  0  0  0  0  0  0  0  0
    1.7001    2.7837   -2.3208 N   0  0  0  0  0  0  0  0  0  0  0  0
   -6.3515   -1.6783    0.1842 N   0  0  0  0  0  0  0  0  0  0  0  0
   -2.1838    1.9085    0.8498 C   0  0  1  0  0  0  0  0  0  0  0  0
   -0.8078    1.2808    0.9566 C   0  0  1  0  0  0  0  0  0  0  0  0
   -3.0491    1.0630    1.7585 C   0  0  2  0  0  0  0  0  0  0  0  0
    0.1327    2.4619    0.9973 C   0  0  2  0  0  0  0  0  0  0  0  0
   -2.0567    0.6415    2.8313 C   0  0  0  0  0  0  0  0  0  0  0  0
   -0.7072    3.5324    1.6702 C   0  0  0  0  0  0  0  0  0  0  0  0
   -4.7868    0.1764    0.3612 C   0  0  0  0  0  0  0  0  0  0  0  0
    1.5036    2.2960   -1.0810 C   0  0  0  0  0  0  0  0  0  0  0  0
   -5.3131   -1.0230   -0.3812 C   0  0  0  0  0  0  0  0  0  0  0  0
   -4.7243   -1.3905   -1.5806 C   0  0  0  0  0  0  0  0  0  0  0  0
    3.1864    0.7745   -1.2237 C   0  0  0  0  0  0  0  0  0  0  0  0
    2.7049    2.2025   -3.0086 C   0  0  0  0  0  0  0  0  0  0  0  0
    3.4890    1.1842   -2.5062 C   0  0  0  0  0  0  0  0  0  0  0  0
   -5.2346   -2.5019   -2.2421 C   0  0  0  0  0  0  0  0  0  0  0  0
    3.9317   -0.2823   -0.5828 C   0  0  0  0  0  0  0  0  0  0  0  0
   -6.8205   -2.7536   -0.4876 C   0  0  0  0  0  0  0  0  0  0  0  0
   -6.3026   -3.2020   -1.6920 C   0  0  0  0  0  0  0  0  0  0  0  0
    5.3055   -0.1455   -0.3831 C   0  0  0  0  0  0  0  0  0  0  0  0
    3.2783   -1.4415   -0.1643 C   0  0  0  0  0  0  0  0  0  0  0  0
    6.0258   -1.1677    0.2346 C   0  0  0  0  0  0  0  0  0  0  0  0
    3.9985   -2.4638    0.4535 C   0  0  0  0  0  0  0  0  0  0  0  0
    5.3722   -2.3269    0.6529 C   0  0  0  0  0  0  0  0  0  0  0  0
    5.3449   -4.4822    1.6575 C   0  0  0  0  0  0  0  0  0  0  0  0
   -2.5373    1.9915   -0.1826 H   0  0  0  0  0  0  0  0  0  0  0  0
   -0.6063    0.5554    0.1619 H   0  0  0  0  0  0  0  0  0  0  0  0
   -3.8694    1.6165    2.2304 H   0  0  0  0  0  0  0  0  0  0  0  0
    1.0351    2.2878    1.5947 H   0  0  0  0  0  0  0  0  0  0  0  0
   -1.9962    1.3992    3.6213 H   0  0  0  0  0  0  0  0  0  0  0  0
   -2.2852   -0.3153    3.3117 H   0  0  0  0  0  0  0  0  0  0  0  0
   -0.6036    3.4823    2.7598 H   0  0  0  0  0  0  0  0  0  0  0  0
   -0.4686    4.5516    1.3506 H   0  0  0  0  0  0  0  0  0  0  0  0
   -3.7100   -0.8685    1.7177 H   0  0  0  0  0  0  0  0  0  0  0  0
   -0.0820    3.5716   -0.8149 H   0  0  0  0  0  0  0  0  0  0  0  0
   -4.6642    0.9982   -0.3549 H   0  0  0  0  0  0  0  0  0  0  0  0
   -5.5495    0.4991    1.0820 H   0  0  0  0  0  0  0  0  0  0  0  0
   -3.8918   -0.8372   -2.0018 H   0  0  0  0  0  0  0  0  0  0  0  0
    2.8671    2.5904   -4.0086 H   0  0  0  0  0  0  0  0  0  0  0  0
    4.2826    0.7449   -3.0980 H   0  0  0  0  0  0  0  0  0  0  0  0
   -4.8008   -2.8220   -3.1847 H   0  0  0  0  0  0  0  0  0  0  0  0
   -7.6537   -3.2647   -0.0166 H   0  0  0  0  0  0  0  0  0  0  0  0
   -6.7165   -4.0711   -2.1902 H   0  0  0  0  0  0  0  0  0  0  0  0
    5.8333    0.7521   -0.6969 H   0  0  0  0  0  0  0  0  0  0  0  0
    2.2083   -1.5666   -0.3145 H   0  0  0  0  0  0  0  0  0  0  0  0
    7.0956   -1.0552    0.3882 H   0  0  0  0  0  0  0  0  0  0  0  0
    3.4288   -3.3369    0.7528 H   0  0  0  0  0  0  0  0  0  0  0  0
    6.0600   -5.1718    2.1178 H   0  0  0  0  0  0  0  0  0  0  0  0
    4.9080   -5.0016    0.7978 H   0  0  0  0  0  0  0  0  0  0  0  0
    4.5971   -4.2407    2.4205 H   0  0  0  0  0  0  0  0  0  0  0  0
  1 10  1  0  0  0  0
  1 13  1  0  0  0  0
  2  9  1  0  0  0  0
  2 14  1  0  0  0  0
  3 30  1  0  0  0  0
  3 31  1  0  0  0  0
  4 11  1  0  0  0  0
  4 15  1  0  0  0  0
  4 40  1  0  0  0  0
  5 12  1  0  0  0  0
  5 16  1  0  0  0  0
  5 41  1  0  0  0  0
  6 16  1  0  0  0  0
  6 19  2  0  0  0  0
  7 16  2  0  0  0  0
  7 20  1  0  0  0  0
  8 17  1  0  0  0  0
  8 24  2  0  0  0  0
  9 10  1  0  0  0  0
  9 11  1  0  0  0  0
  9 32  1  0  0  0  0
 10 12  1  0  0  0  0
 10 33  1  0  0  0  0
 11 13  1  0  0  0  0
 11 34  1  0  0  0  0
 12 14  1  0  0  0  0
 12 35  1  0  0  0  0
 13 36  1  0  0  0  0
 13 37  1  0  0  0  0
 14 38  1  0  0  0  0
 14 39  1  0  0  0  0
 15 17  1  0  0  0  0
 15 42  1  0  0  0  0
 15 43  1  0  0  0  0
 17 18  2  0  0  0  0
 18 22  1  0  0  0  0
 18 44  1  0  0  0  0
 19 21  1  0  0  0  0
 19 23  1  0  0  0  0
 20 21  2  0  0  0  0
 20 45  1  0  0  0  0
 21 46  1  0  0  0  0
 22 25  2  0  0  0  0
 22 47  1  0  0  0  0
 23 26  2  0  0  0  0
 23 27  1  0  0  0  0
 24 25  1  0  0  0  0
 24 48  1  0  0  0  0
 25 49  1  0  0  0  0
 26 28  1  0  0  0  0
 26 50  1  0  0  0  0
 27 29  2  0  0  0  0
 27 51  1  0  0  0  0
 28 30  2  0  0  0  0
 28 52  1  0  0  0  0
 29 30  1  0  0  0  0
 29 53  1  0  0  0  0
 31 54  1  0  0  0  0
 31 55  1  0  0  0  0
 31 56  1  0  0  0  0
M  END
> <PUBCHEM_COMPOUND_CID>
40533593

> <PUBCHEM_CONFORMER_RMSD>
1

> <PUBCHEM_CONFORMER_DIVERSEORDER>
1
31
121
71
79
32
29
98
41
37
56
70
107
65
7
42
44
49
139
38
27
82
17
111
105
43
126
116
100
99
78
134
144
3
59
103
68
108
138
118
133
94
127
119
58
54
11
123
15
110
92
50
90
101
61
24
14
106
89
53
35
60
39
45
91
48
51
47
102
125
75
83
95
115
76
5
84
145
147
16
140
77
36
131
146
142
20
23
143
117
122
19
66
72
46
8
64
30
112
88
129
40
69
130
10
85
80
28
128
86
74
67
96
120
55
109
4
9
62
33
132
63
137
135
114
13
18
73
124
87
57
25
52
26
81
12
141
97
104
22
136
113
21
6
2
148
34
93

> <PUBCHEM_MMFF94_PARTIAL_CHARGES>
42
1 -0.56
10 0.28
11 0.27
12 0.37
13 0.28
14 0.28
15 0.41
16 0.72
17 0.17
18 -0.15
19 0.31
2 -0.56
20 0.16
21 -0.15
22 -0.15
24 0.16
25 -0.15
26 -0.15
27 -0.15
28 -0.15
29 -0.15
3 -0.36
30 0.08
31 0.28
4 -0.9
40 0.36
41 0.4
44 0.15
45 0.15
46 0.15
47 0.15
48 0.15
49 0.15
5 -0.87
50 0.15
51 0.15
52 0.15
53 0.15
6 -0.62
7 -0.62
8 -0.62
9 0.28

> <PUBCHEM_EFFECTIVE_ROTOR_COUNT>
8.2

> <PUBCHEM_PHARMACOPHORE_FEATURES>
14
1 1 acceptor
1 2 acceptor
1 3 acceptor
1 4 cation
1 4 donor
1 5 donor
1 6 acceptor
1 8 acceptor
4 5 6 7 16 cation
5 1 9 10 11 13 rings
5 2 9 10 12 14 rings
6 23 26 27 28 29 30 rings
6 6 7 16 19 20 21 rings
6 8 17 18 22 24 25 rings

> <PUBCHEM_HEAVY_ATOM_COUNT>
31

> <PUBCHEM_ATOM_DEF_STEREO_COUNT>
4

> <PUBCHEM_ATOM_UDEF_STEREO_COUNT>
0

> <PUBCHEM_BOND_DEF_STEREO_COUNT>
0

> <PUBCHEM_BOND_UDEF_STEREO_COUNT>
0

> <PUBCHEM_ISOTOPIC_ATOM_COUNT>
0

> <PUBCHEM_COMPONENT_COUNT>
1

> <PUBCHEM_CACTVS_TAUTO_COUNT>
3

> <PUBCHEM_CONFORMER_ID>
026A7E5900000001

> <PUBCHEM_MMFF94_ENERGY>
100.6647

> <PUBCHEM_FEATURE_SELFOVERLAP>
71.758

> <PUBCHEM_SHAPE_FINGERPRINT>
10556698 54 15720487942220779983
10622 236 18335701598407650522
10908659 184 17987529263616486847
11069576 57 18334305283549902382
11135609 149 18262220214343016029
11135926 11 17461191926434198164
11227150 75 18336529569503136178
11443803 9 17415290700773386948
11497681 19 18339361852297228054
11607047 403 18126551535390989384
11720765 8 18336254747599559389
11796584 16 17703523146644997977
11828042 279 16806471175514787254
12144603 126 18342192075924218689
12166972 35 18334852839855484807
12559416 138 18189065217891824602
12977781 61 18125126464509524593
13828863 39 10663810897503068325
14068700 675 18341327821087181632
14340393 91 17895736427933271055
14508693 111 17846225521764905231
15119646 57 10990635785557991647
15419009 47 17970616395120977149
15950262 2 7852984205529318650
17324776 126 18335694988543783522
19304671 126 16081363111738261573
19315092 285 18272651251512780224
20156587 76 17897695770422473872
20775438 99 18046053028466188819
21223535 225 16805875204950415301
21458453 9 14907315590140461927
25019877 29 14652535291432019480
25025965 108 17462554011093941922
2838139 119 14057826348886365493
4015057 19 17822302313645393121
4017518 198 17041486007838284724
437795 139 18272928345532683737
437795 70 16443337638122472751
4394409 98 18131059412926995767
439807 62 18338236072517412599
46194498 28 15648773476971763396
463206 1 18341339984651036563
57527293 21 17829060823375701822
57527295 17 18267886028089843897
57634706 229 12534189054499368378
59025328 239 17967535662187098348
59682541 52 18041275582272021319
6058803 2 18193864594615674924
6636735 143 14549024282487501239
66674814 147 18260547818270334651
6677587 24 16884116705506367165
96874 4 18412819192402145759

> <PUBCHEM_SHAPE_MULTIPOLES>
595.45
17.13
5.12
2.68
10.11
1.82
-0.74
24.51
-3.03
-1.84
0.9
0
-1.09
-7.65

> <PUBCHEM_SHAPE_SELFOVERLAP>
1301.806

> <PUBCHEM_SHAPE_VOLUME>
321.3

> <PUBCHEM_COORDINATE_TYPE>
2
5
10

$$$$
