51136664
  -OEChem-12032416143D

 59 62  0     1  0  0  0  0  0999 V2000
    3.4545   -2.0724    0.2962 S   0  0  0  0  0  0  0  0  0  0  0  0
   -0.1574   -3.5860    0.6626 O   0  0  0  0  0  0  0  0  0  0  0  0
   -6.4818    1.6987    1.5061 O   0  0  0  0  0  0  0  0  0  0  0  0
   -6.4711   -0.3492    0.5127 O   0  0  0  0  0  0  0  0  0  0  0  0
    4.8270    2.6656    1.1862 O   0  0  0  0  0  0  0  0  0  0  0  0
   -1.5104   -2.0426   -0.4258 N   0  0  0  0  0  0  0  0  0  0  0  0
   -0.8505    2.2702   -1.7497 N   0  0  0  0  0  0  0  0  0  0  0  0
   -2.3885    0.2620   -0.7276 C   0  0  2  0  0  0  0  0  0  0  0  0
   -3.6995   -0.1864   -0.0328 C   0  0  1  0  0  0  0  0  0  0  0  0
   -3.4571   -1.3645    0.9259 C   0  0  0  0  0  0  0  0  0  0  0  0
   -1.7057   -0.9499   -1.3872 C   0  0  0  0  0  0  0  0  0  0  0  0
   -2.7342   -2.5112    0.2239 C   0  0  0  0  0  0  0  0  0  0  0  0
   -1.4067    0.9859    0.2020 C   0  0  0  0  0  0  0  0  0  0  0  0
   -4.4188    0.9545    0.6864 C   0  0  0  0  0  0  0  0  0  0  0  0
   -0.4399    1.8094   -0.6145 C   0  0  0  0  0  0  0  0  0  0  0  0
   -0.2907   -2.6508   -0.1310 C   0  0  0  0  0  0  0  0  0  0  0  0
    0.9272    2.0429   -0.0828 C   0  0  0  0  0  0  0  0  0  0  0  0
   -5.8820    0.6599    0.8697 C   0  0  0  0  0  0  0  0  0  0  0  0
    0.9242   -2.1081   -0.8404 C   0  0  0  0  0  0  0  0  0  0  0  0
    1.8988    2.4593   -1.0017 C   0  0  0  0  0  0  0  0  0  0  0  0
    1.5065    2.6253   -2.4397 C   0  0  0  0  0  0  0  0  0  0  0  0
    0.0680    3.1204   -2.5146 C   0  0  0  0  0  0  0  0  0  0  0  0
    1.2583    1.8501    1.2597 C   0  0  0  0  0  0  0  0  0  0  0  0
    3.2142    2.6574   -0.5727 C   0  0  0  0  0  0  0  0  0  0  0  0
    2.1476   -2.8816   -0.4584 C   0  0  0  0  0  0  0  0  0  0  0  0
    2.5710    2.0655    1.6817 C   0  0  0  0  0  0  0  0  0  0  0  0
    3.5469    2.4652    0.7682 C   0  0  0  0  0  0  0  0  0  0  0  0
    2.4012   -4.2246   -0.6306 C   0  0  0  0  0  0  0  0  0  0  0  0
    3.6854   -4.5942   -0.1364 C   0  0  0  0  0  0  0  0  0  0  0  0
    4.3643   -3.5197    0.3947 C   0  0  0  0  0  0  0  0  0  0  0  0
    5.0991    2.4490    2.5699 C   0  0  0  0  0  0  0  0  0  0  0  0
   -2.7118    0.9306   -1.5353 H   0  0  0  0  0  0  0  0  0  0  0  0
   -4.3551   -0.5568   -0.8352 H   0  0  0  0  0  0  0  0  0  0  0  0
   -4.4012   -1.7391    1.3356 H   0  0  0  0  0  0  0  0  0  0  0  0
   -2.8527   -1.0290    1.7783 H   0  0  0  0  0  0  0  0  0  0  0  0
   -2.3482   -1.3473   -2.1833 H   0  0  0  0  0  0  0  0  0  0  0  0
   -0.7729   -0.6525   -1.8691 H   0  0  0  0  0  0  0  0  0  0  0  0
   -2.5140   -3.3040    0.9457 H   0  0  0  0  0  0  0  0  0  0  0  0
   -3.3721   -2.9467   -0.5544 H   0  0  0  0  0  0  0  0  0  0  0  0
   -0.8810    0.2692    0.8387 H   0  0  0  0  0  0  0  0  0  0  0  0
   -1.9233    1.6959    0.8558 H   0  0  0  0  0  0  0  0  0  0  0  0
   -4.3507    1.8705    0.0876 H   0  0  0  0  0  0  0  0  0  0  0  0
   -3.9793    1.1391    1.6728 H   0  0  0  0  0  0  0  0  0  0  0  0
    1.0342   -1.0471   -0.5949 H   0  0  0  0  0  0  0  0  0  0  0  0
    0.7807   -2.2053   -1.9228 H   0  0  0  0  0  0  0  0  0  0  0  0
    1.6054    1.6571   -2.9453 H   0  0  0  0  0  0  0  0  0  0  0  0
    2.1641    3.3417   -2.9445 H   0  0  0  0  0  0  0  0  0  0  0  0
   -0.0116    4.1513   -2.1474 H   0  0  0  0  0  0  0  0  0  0  0  0
   -0.2542    3.1289   -3.5616 H   0  0  0  0  0  0  0  0  0  0  0  0
    0.5196    1.5494    1.9958 H   0  0  0  0  0  0  0  0  0  0  0  0
    3.9801    2.9624   -1.2813 H   0  0  0  0  0  0  0  0  0  0  0  0
   -7.4401    1.5396    1.6428 H   0  0  0  0  0  0  0  0  0  0  0  0
    2.7639    1.9022    2.7367 H   0  0  0  0  0  0  0  0  0  0  0  0
    1.7056   -4.9137   -1.0928 H   0  0  0  0  0  0  0  0  0  0  0  0
    4.0911   -5.5970   -0.1697 H   0  0  0  0  0  0  0  0  0  0  0  0
    5.3512   -3.5152    0.8355 H   0  0  0  0  0  0  0  0  0  0  0  0
    4.5439    3.1488    3.2038 H   0  0  0  0  0  0  0  0  0  0  0  0
    4.9290    1.4052    2.8549 H   0  0  0  0  0  0  0  0  0  0  0  0
    6.1636    2.6529    2.7256 H   0  0  0  0  0  0  0  0  0  0  0  0
  1 25  1  0  0  0  0
  1 30  1  0  0  0  0
  2 16  2  0  0  0  0
  3 18  1  0  0  0  0
  3 52  1  0  0  0  0
  4 18  2  0  0  0  0
  5 27  1  0  0  0  0
  5 31  1  0  0  0  0
  6 11  1  0  0  0  0
  6 12  1  0  0  0  0
  6 16  1  0  0  0  0
  7 15  2  0  0  0  0
  7 22  1  0  0  0  0
  8  9  1  0  0  0  0
  8 11  1  0  0  0  0
  8 13  1  0  0  0  0
  8 32  1  0  0  0  0
  9 10  1  0  0  0  0
  9 14  1  0  0  0  0
  9 33  1  0  0  0  0
 10 12  1  0  0  0  0
 10 34  1  0  0  0  0
 10 35  1  0  0  0  0
 11 36  1  0  0  0  0
 11 37  1  0  0  0  0
 12 38  1  0  0  0  0
 12 39  1  0  0  0  0
 13 15  1  0  0  0  0
 13 40  1  0  0  0  0
 13 41  1  0  0  0  0
 14 18  1  0  0  0  0
 14 42  1  0  0  0  0
 14 43  1  0  0  0  0
 15 17  1  0  0  0  0
 16 19  1  0  0  0  0
 17 20  2  0  0  0  0
 17 23  1  0  0  0  0
 19 25  1  0  0  0  0
 19 44  1  0  0  0  0
 19 45  1  0  0  0  0
 20 21  1  0  0  0  0
 20 24  1  0  0  0  0
 21 22  1  0  0  0  0
 21 46  1  0  0  0  0
 21 47  1  0  0  0  0
 22 48  1  0  0  0  0
 22 49  1  0  0  0  0
 23 26  2  0  0  0  0
 23 50  1  0  0  0  0
 24 27  2  0  0  0  0
 24 51  1  0  0  0  0
 25 28  2  0  0  0  0
 26 27  1  0  0  0  0
 26 53  1  0  0  0  0
 28 29  1  0  0  0  0
 28 54  1  0  0  0  0
 29 30  2  0  0  0  0
 29 55  1  0  0  0  0
 30 56  1  0  0  0  0
 31 57  1  0  0  0  0
 31 58  1  0  0  0  0
 31 59  1  0  0  0  0
M  END
> <PUBCHEM_COMPOUND_CID>
51136664

> <PUBCHEM_CONFORMER_RMSD>
1

> <PUBCHEM_CONFORMER_DIVERSEORDER>
1
20
125
161
254
262
202
17
138
179
11
145
26
191
5
120
81
203
2
153
139
42
200
8
72
70
28
55
60
252
137
242
63
22
121
27
65
66
209
18
110
181
116
204
185
229
198
217
122
158
7
50
223
132
75
212
196
234
89
236
149
255
105
59
108
4
165
40
73
111
25
47
96
104
206
140
61
261
16
127
91
251
162
201
98
195
44
78
174
74
12
248
37
45
123
186
147
90
171
182
101
222
249
9
169
192
135
14
136
227
38
244
46
68
259
53
194
23
250
199
94
93
184
157
215
133
243
128
103
155
85
154
246
168
214
170
172
13
32
193
97
175
239
218
79
77
247
156
124
102
3
56
31
211
228
207
258
80
253
130
167
221
57
241
257
210
159
225
144
237
15
220
118
224
232
146
176
141
233
208
106
240
39
143
178
29
114
205
24
10
43
226
34
30
54
71
117
87
231
84
64
21
245
115
58
134
235
107
51
131
83
150
180
48
187
82
216
67
33
36
238
163
260
189
197
19
160
92
148
88
49
219
69
129
99
6
52
183
190
113
213
256
126
166
35
112
119
109
177
188
41
230
152
100
173
142
151
76
164
62
86
95

> <PUBCHEM_MMFF94_PARTIAL_CHARGES>
35
1 -0.08
11 0.3
12 0.3
13 0.06
14 0.06
15 0.3
16 0.57
17 0.09
18 0.66
19 0.24
2 -0.57
20 -0.14
21 0.14
22 0.25
23 -0.15
24 -0.15
25 -0.14
26 -0.15
27 0.08
28 -0.15
29 -0.15
3 -0.65
30 -0.11
31 0.28
4 -0.57
5 -0.36
50 0.15
51 0.15
52 0.5
53 0.15
54 0.15
55 0.15
56 0.15
6 -0.66
7 -0.7

> <PUBCHEM_EFFECTIVE_ROTOR_COUNT>
9.6

> <PUBCHEM_PHARMACOPHORE_FEATURES>
10
1 2 acceptor
1 3 acceptor
1 4 acceptor
1 5 acceptor
1 7 acceptor
3 3 4 18 anion
5 1 25 28 29 30 rings
6 17 20 23 24 26 27 rings
6 6 8 9 10 11 12 rings
6 7 15 17 20 21 22 rings

> <PUBCHEM_HEAVY_ATOM_COUNT>
31

> <PUBCHEM_ATOM_DEF_STEREO_COUNT>
2

> <PUBCHEM_ATOM_UDEF_STEREO_COUNT>
0

> <PUBCHEM_BOND_DEF_STEREO_COUNT>
0

> <PUBCHEM_BOND_UDEF_STEREO_COUNT>
0

> <PUBCHEM_ISOTOPIC_ATOM_COUNT>
0

> <PUBCHEM_COMPONENT_COUNT>
1

> <PUBCHEM_CACTVS_TAUTO_COUNT>
1

> <PUBCHEM_CONFORMER_ID>
030C489800000001

> <PUBCHEM_MMFF94_ENERGY>
80.4032

> <PUBCHEM_FEATURE_SELFOVERLAP>
50.831

> <PUBCHEM_SHAPE_FINGERPRINT>
11513181 2 18059854012608462150
12422481 6 18263061323895648344
12788726 201 15965654502540746548
13140716 1 18410577284172202827
14725015 67 18043242436163900243
15064986 96 18262223448832788577
15347590 135 17899411992189788162
15420108 30 18129371765056544598
15927050 60 18270965772637626710
1979834 28 18335702775365898328
20600515 1 17476375902197195925
20775530 9 18192705640782187254
21304253 13 18052546465462253115
22182313 1 18114729435544243301
229767 44 18049701204632448730
23559900 14 18187377493586317151
3411729 13 18343587347763375033
469060 322 17612614231905350274
5104073 3 18270701800770310523
5171179 24 18193829341634080421
5265222 85 17978802529878365764
5385378 56 18341622533548789521
7064713 232 18195521717182673728

> <PUBCHEM_SHAPE_MULTIPOLES>
608.38
10.7
6.29
1.87
13.21
4.74
-0.3
-1
7.13
-9.49
-0.89
-1
-2.33
1.38

> <PUBCHEM_SHAPE_SELFOVERLAP>
1286.636

> <PUBCHEM_SHAPE_VOLUME>
341.6

> <PUBCHEM_COORDINATE_TYPE>
2
5
10

$$$$
