38026953
  -OEChem-12032416243D

 69 71  0     1  0  0  0  0  0999 V2000
    0.7584    3.4691    1.7312 F   0  0  0  0  0  0  0  0  0  0  0  0
    1.3435   -3.4035   -0.0749 O   0  0  0  0  0  0  0  0  0  0  0  0
   -3.7341    1.7753   -1.6868 O   0  0  0  0  0  0  0  0  0  0  0  0
    6.2083    1.8292   -0.2744 O   0  0  0  0  0  0  0  0  0  0  0  0
    2.5163   -1.4056   -0.2390 N   0  0  0  0  0  0  0  0  0  0  0  0
   -3.4290    0.9343    0.4545 N   0  0  0  0  0  0  0  0  0  0  0  0
    5.0630   -0.1788   -0.0503 N   0  0  0  0  0  0  0  0  0  0  0  0
   -2.6111   -1.7716   -0.5713 C   0  0  1  0  0  0  0  0  0  0  0  0
   -3.6294   -1.4940    0.5628 C   0  0  1  0  0  0  0  0  0  0  0  0
   -1.6170   -2.8623   -0.1443 C   0  0  0  0  0  0  0  0  0  0  0  0
   -0.8381   -2.4750    1.1270 C   0  0  2  0  0  0  0  0  0  0  0  0
   -3.3073   -2.1848   -1.8720 C   0  0  0  0  0  0  0  0  0  0  0  0
   -1.7542   -1.9345    2.2060 C   0  0  0  0  0  0  0  0  0  0  0  0
   -3.0029   -1.5133    1.9373 C   0  0  0  0  0  0  0  0  0  0  0  0
    0.2809   -1.4777    0.8068 C   0  0  0  0  0  0  0  0  0  0  0  0
   -4.3465   -0.1565    0.3471 C   0  0  0  0  0  0  0  0  0  0  0  0
   -2.4190   -1.8743   -3.0727 C   0  0  0  0  0  0  0  0  0  0  0  0
   -3.6681   -3.6663   -1.8347 C   0  0  0  0  0  0  0  0  0  0  0  0
   -1.2181   -1.9316    3.6106 C   0  0  0  0  0  0  0  0  0  0  0  0
    1.4223   -2.1888    0.1249 C   0  0  0  0  0  0  0  0  0  0  0  0
    3.6678   -2.0214   -0.9033 C   0  0  0  0  0  0  0  0  0  0  0  0
    2.6095    0.0520   -0.0831 C   0  0  0  0  0  0  0  0  0  0  0  0
    4.9701   -1.6364   -0.2063 C   0  0  0  0  0  0  0  0  0  0  0  0
    3.9116    0.4367    0.6142 C   0  0  0  0  0  0  0  0  0  0  0  0
   -3.1900    1.8300   -0.5871 C   0  0  0  0  0  0  0  0  0  0  0  0
    6.1560    0.6049   -0.4164 C   0  0  0  0  0  0  0  0  0  0  0  0
   -2.1872    2.8945   -0.3257 C   0  0  0  0  0  0  0  0  0  0  0  0
    7.3308   -0.1182   -1.0248 C   0  0  0  0  0  0  0  0  0  0  0  0
   -1.1650    2.6778    0.5984 C   0  0  0  0  0  0  0  0  0  0  0  0
   -2.2678    4.1106   -1.0042 C   0  0  0  0  0  0  0  0  0  0  0  0
   -0.2232    3.6771    0.8439 C   0  0  0  0  0  0  0  0  0  0  0  0
   -1.3263    5.1100   -0.7586 C   0  0  0  0  0  0  0  0  0  0  0  0
   -0.3038    4.8932    0.1652 C   0  0  0  0  0  0  0  0  0  0  0  0
   -2.0438   -0.8544   -0.7666 H   0  0  0  0  0  0  0  0  0  0  0  0
   -4.3972   -2.2780    0.5662 H   0  0  0  0  0  0  0  0  0  0  0  0
   -0.9308   -3.1042   -0.9611 H   0  0  0  0  0  0  0  0  0  0  0  0
   -2.1461   -3.7912    0.1056 H   0  0  0  0  0  0  0  0  0  0  0  0
   -0.4047   -3.4024    1.5277 H   0  0  0  0  0  0  0  0  0  0  0  0
   -4.2318   -1.6144   -2.0082 H   0  0  0  0  0  0  0  0  0  0  0  0
   -3.6328   -1.1788    2.7594 H   0  0  0  0  0  0  0  0  0  0  0  0
   -0.0800   -0.6662    0.1681 H   0  0  0  0  0  0  0  0  0  0  0  0
    0.6818   -1.0374    1.7265 H   0  0  0  0  0  0  0  0  0  0  0  0
   -4.8740   -0.1255   -0.6101 H   0  0  0  0  0  0  0  0  0  0  0  0
   -5.1049   -0.0053    1.1251 H   0  0  0  0  0  0  0  0  0  0  0  0
   -2.9316   -2.1362   -4.0049 H   0  0  0  0  0  0  0  0  0  0  0  0
   -2.1817   -0.8059   -3.1180 H   0  0  0  0  0  0  0  0  0  0  0  0
   -1.4767   -2.4301   -3.0489 H   0  0  0  0  0  0  0  0  0  0  0  0
   -4.2209   -3.9444   -0.9326 H   0  0  0  0  0  0  0  0  0  0  0  0
   -4.3243   -3.8978   -2.6829 H   0  0  0  0  0  0  0  0  0  0  0  0
   -2.7993   -4.3241   -1.9439 H   0  0  0  0  0  0  0  0  0  0  0  0
   -0.8831   -2.9352    3.8920 H   0  0  0  0  0  0  0  0  0  0  0  0
   -1.9763   -1.6241    4.3389 H   0  0  0  0  0  0  0  0  0  0  0  0
   -0.3743   -1.2426    3.7075 H   0  0  0  0  0  0  0  0  0  0  0  0
   -3.0104    1.0989    1.3641 H   0  0  0  0  0  0  0  0  0  0  0  0
    3.6691   -1.6610   -1.9391 H   0  0  0  0  0  0  0  0  0  0  0  0
    3.5676   -3.1109   -0.9314 H   0  0  0  0  0  0  0  0  0  0  0  0
    1.7662    0.4660    0.4718 H   0  0  0  0  0  0  0  0  0  0  0  0
    2.5792    0.4795   -1.0926 H   0  0  0  0  0  0  0  0  0  0  0  0
    5.0019   -2.0647    0.8028 H   0  0  0  0  0  0  0  0  0  0  0  0
    5.8150   -2.0447   -0.7634 H   0  0  0  0  0  0  0  0  0  0  0  0
    4.0116    1.5261    0.6439 H   0  0  0  0  0  0  0  0  0  0  0  0
    3.9097    0.0752    1.6496 H   0  0  0  0  0  0  0  0  0  0  0  0
    7.0390   -0.5805   -1.9715 H   0  0  0  0  0  0  0  0  0  0  0  0
    7.7137   -0.8717   -0.3312 H   0  0  0  0  0  0  0  0  0  0  0  0
    8.1338    0.5973   -1.2264 H   0  0  0  0  0  0  0  0  0  0  0  0
   -1.0512    1.7356    1.1264 H   0  0  0  0  0  0  0  0  0  0  0  0
   -3.0595    4.2996   -1.7245 H   0  0  0  0  0  0  0  0  0  0  0  0
   -1.3894    6.0574   -1.2861 H   0  0  0  0  0  0  0  0  0  0  0  0
    0.4294    5.6711    0.3567 H   0  0  0  0  0  0  0  0  0  0  0  0
  1 31  1  0  0  0  0
  2 20  2  0  0  0  0
  3 25  2  0  0  0  0
  4 26  2  0  0  0  0
  5 20  1  0  0  0  0
  5 21  1  0  0  0  0
  5 22  1  0  0  0  0
  6 16  1  0  0  0  0
  6 25  1  0  0  0  0
  6 54  1  0  0  0  0
  7 23  1  0  0  0  0
  7 24  1  0  0  0  0
  7 26  1  0  0  0  0
  8  9  1  0  0  0  0
  8 10  1  0  0  0  0
  8 12  1  0  0  0  0
  8 34  1  0  0  0  0
  9 14  1  0  0  0  0
  9 16  1  0  0  0  0
  9 35  1  0  0  0  0
 10 11  1  0  0  0  0
 10 36  1  0  0  0  0
 10 37  1  0  0  0  0
 11 13  1  0  0  0  0
 11 15  1  0  0  0  0
 11 38  1  0  0  0  0
 12 17  1  0  0  0  0
 12 18  1  0  0  0  0
 12 39  1  0  0  0  0
 13 14  2  0  0  0  0
 13 19  1  0  0  0  0
 14 40  1  0  0  0  0
 15 20  1  0  0  0  0
 15 41  1  0  0  0  0
 15 42  1  0  0  0  0
 16 43  1  0  0  0  0
 16 44  1  0  0  0  0
 17 45  1  0  0  0  0
 17 46  1  0  0  0  0
 17 47  1  0  0  0  0
 18 48  1  0  0  0  0
 18 49  1  0  0  0  0
 18 50  1  0  0  0  0
 19 51  1  0  0  0  0
 19 52  1  0  0  0  0
 19 53  1  0  0  0  0
 21 23  1  0  0  0  0
 21 55  1  0  0  0  0
 21 56  1  0  0  0  0
 22 24  1  0  0  0  0
 22 57  1  0  0  0  0
 22 58  1  0  0  0  0
 23 59  1  0  0  0  0
 23 60  1  0  0  0  0
 24 61  1  0  0  0  0
 24 62  1  0  0  0  0
 25 27  1  0  0  0  0
 26 28  1  0  0  0  0
 27 29  2  0  0  0  0
 27 30  1  0  0  0  0
 28 63  1  0  0  0  0
 28 64  1  0  0  0  0
 28 65  1  0  0  0  0
 29 31  1  0  0  0  0
 29 66  1  0  0  0  0
 30 32  2  0  0  0  0
 30 67  1  0  0  0  0
 31 33  2  0  0  0  0
 32 33  1  0  0  0  0
 32 68  1  0  0  0  0
 33 69  1  0  0  0  0
M  END
> <PUBCHEM_COMPOUND_CID>
38026953

> <PUBCHEM_CONFORMER_RMSD>
1.2

> <PUBCHEM_CONFORMER_DIVERSEORDER>
1
54
27
73
137
142
44
39
13
121
113
102
119
59
84
24
126
58
16
117
20
110
62
115
101
41
38
86
22
114
129
105
136
28
135
100
118
116
57
124
106
128
131
61
46
19
140
65
25
21
71
98
15
111
108
8
56
138
50
63
103
94
5
30
69
99
92
2
64
70
12
35
14
79
81
4
67
74
120
29
112
37
123
132
139
78
87
141
43
77
134
91
36
17
3
47
122
109
125
11
32
107
48
83
7
26
60
55
130
53
45
42
85
127
88
133
97
51
104
52
75
82
96
93
31
49
18
95
89
10
34
66
33
80
40
6
23
72
9
68
90
76

> <PUBCHEM_MMFF94_PARTIAL_CHARGES>
34
1 -0.19
11 0.14
13 -0.28
14 -0.29
15 0.06
16 0.3
19 0.14
2 -0.57
20 0.57
21 0.3
22 0.3
23 0.3
24 0.3
25 0.54
26 0.57
27 0.09
28 0.06
29 -0.15
3 -0.57
30 -0.15
31 0.19
32 -0.15
33 -0.15
4 -0.57
40 0.15
5 -0.66
54 0.37
6 -0.73
66 0.15
67 0.15
68 0.15
69 0.15
7 -0.66
9 0.14

> <PUBCHEM_EFFECTIVE_ROTOR_COUNT>
11

> <PUBCHEM_PHARMACOPHORE_FEATURES>
8
1 2 acceptor
1 3 acceptor
1 4 acceptor
1 6 donor
3 12 17 18 hydrophobe
6 27 29 30 31 32 33 rings
6 5 7 21 22 23 24 rings
6 8 9 10 11 13 14 rings

> <PUBCHEM_HEAVY_ATOM_COUNT>
33

> <PUBCHEM_ATOM_DEF_STEREO_COUNT>
3

> <PUBCHEM_ATOM_UDEF_STEREO_COUNT>
0

> <PUBCHEM_BOND_DEF_STEREO_COUNT>
0

> <PUBCHEM_BOND_UDEF_STEREO_COUNT>
0

> <PUBCHEM_ISOTOPIC_ATOM_COUNT>
0

> <PUBCHEM_COMPONENT_COUNT>
1

> <PUBCHEM_CACTVS_TAUTO_COUNT>
2

> <PUBCHEM_CONFORMER_ID>
02443EC900000001

> <PUBCHEM_MMFF94_ENERGY>
74.3

> <PUBCHEM_FEATURE_SELFOVERLAP>
40.597

> <PUBCHEM_SHAPE_FINGERPRINT>
10006869 2 18045780079742586041
10291535 26 18260837011535164018
12788726 201 18334290942459065056
13402501 40 18410015467641527889
13761468 95 17986126118805077744
14114206 34 18041825286114044541
14114211 80 17842842119071775361
14279260 333 18120653523113008806
14363568 33 17541688421995745720
16067690 210 18114449159121923328
16993438 75 18337677417045841216
19930381 70 17618213353526470167
20764821 26 18338238296471831544
21033648 144 18057325201069424454
3493558 16 17750532830667448612
497634 4 17346328123553605234
50150288 127 16556234293556355136
5171179 24 18057030518377422936
531348 171 18270684169344809422
550186 7 18270410395164560326
57527306 92 18259981574915455695
6201320 215 18412258403914260776
7288768 16 17677338190902613083

> <PUBCHEM_SHAPE_MULTIPOLES>
639.3
11.4
6.64
2.22
26.57
9.34
0.65
-2
-4.28
-5.39
-0.8
-2.64
-1.97
0.27

> <PUBCHEM_SHAPE_SELFOVERLAP>
1327.461

> <PUBCHEM_SHAPE_VOLUME>
363.7

> <PUBCHEM_COORDINATE_TYPE>
2
5
10

$$$$
