26745413
  -OEChem-12032416353D

 54 57  0     1  0  0  0  0  0999 V2000
    5.8728    1.0883   -2.1145 F   0  0  0  0  0  0  0  0  0  0  0  0
    7.0172    1.2785   -0.2755 F   0  0  0  0  0  0  0  0  0  0  0  0
    6.2272    3.0495   -1.2590 F   0  0  0  0  0  0  0  0  0  0  0  0
    0.6916   -1.6065    2.3672 O   0  0  0  0  0  0  0  0  0  0  0  0
   -5.5527    4.1134   -0.1947 O   0  0  0  0  0  0  0  0  0  0  0  0
   -7.1711    2.6502    0.4428 O   0  0  0  0  0  0  0  0  0  0  0  0
   -0.9529   -1.0659   -0.5430 N   0  0  1  0  0  0  0  0  0  0  0  0
    0.8940   -4.2259   -1.4097 N   0  0  0  0  0  0  0  0  0  0  0  0
   -0.1918   -5.1125    0.3325 N   0  0  0  0  0  0  0  0  0  0  0  0
    0.0769    0.4756    1.5267 N   0  0  0  0  0  0  0  0  0  0  0  0
   -1.1701   -1.4663    0.8730 C   0  0  1  0  0  0  0  0  0  0  0  0
   -1.3235   -2.9900    1.1436 C   0  0  0  0  0  0  0  0  0  0  0  0
    0.1770   -1.7769   -1.2009 C   0  0  0  0  0  0  0  0  0  0  0  0
    0.2100   -3.2065   -0.8210 C   0  0  0  0  0  0  0  0  0  0  0  0
   -0.4426   -3.7724    0.2458 C   0  0  0  0  0  0  0  0  0  0  0  0
   -2.1875   -1.2067   -1.3203 C   0  0  0  0  0  0  0  0  0  0  0  0
   -0.0281   -0.8975    1.6687 C   0  0  0  0  0  0  0  0  0  0  0  0
   -3.1942   -0.1430   -0.9712 C   0  0  0  0  0  0  0  0  0  0  0  0
    0.6194   -5.3552   -0.6785 C   0  0  0  0  0  0  0  0  0  0  0  0
    1.0784    1.2664    2.2050 C   0  0  0  0  0  0  0  0  0  0  0  0
   -4.4541   -0.5046   -0.4940 C   0  0  0  0  0  0  0  0  0  0  0  0
   -2.8669    1.2041   -1.1252 C   0  0  0  0  0  0  0  0  0  0  0  0
    2.3378    1.3950    1.3903 C   0  0  0  0  0  0  0  0  0  0  0  0
   -5.3866    0.4810   -0.1709 C   0  0  0  0  0  0  0  0  0  0  0  0
   -3.7994    2.1898   -0.8020 C   0  0  0  0  0  0  0  0  0  0  0  0
   -5.0593    1.8283   -0.3248 C   0  0  0  0  0  0  0  0  0  0  0  0
    3.5533    0.9500    1.9101 C   0  0  0  0  0  0  0  0  0  0  0  0
    2.2893    1.9596    0.1157 C   0  0  0  0  0  0  0  0  0  0  0  0
    4.7203    1.0696    1.1555 C   0  0  0  0  0  0  0  0  0  0  0  0
    3.4561    2.0792   -0.6390 C   0  0  0  0  0  0  0  0  0  0  0  0
    4.6716    1.6343   -0.1192 C   0  0  0  0  0  0  0  0  0  0  0  0
   -6.0313    2.8561    0.0131 C   0  0  0  0  0  0  0  0  0  0  0  0
    5.9190    1.7609   -0.9266 C   0  0  0  0  0  0  0  0  0  0  0  0
   -2.0600   -0.9715    1.2856 H   0  0  0  0  0  0  0  0  0  0  0  0
   -2.3601   -3.2845    0.9375 H   0  0  0  0  0  0  0  0  0  0  0  0
   -1.1228   -3.2446    2.1900 H   0  0  0  0  0  0  0  0  0  0  0  0
    1.1132   -1.3070   -0.8747 H   0  0  0  0  0  0  0  0  0  0  0  0
    0.1464   -1.6544   -2.2899 H   0  0  0  0  0  0  0  0  0  0  0  0
   -2.6213   -2.2099   -1.2264 H   0  0  0  0  0  0  0  0  0  0  0  0
   -1.9797   -1.0762   -2.3914 H   0  0  0  0  0  0  0  0  0  0  0  0
    1.4912   -4.1679   -2.2240 H   0  0  0  0  0  0  0  0  0  0  0  0
    1.0414   -6.3161   -0.9365 H   0  0  0  0  0  0  0  0  0  0  0  0
   -0.5687    0.9585    0.9084 H   0  0  0  0  0  0  0  0  0  0  0  0
    1.2840    0.8124    3.1811 H   0  0  0  0  0  0  0  0  0  0  0  0
    0.6545    2.2607    2.3844 H   0  0  0  0  0  0  0  0  0  0  0  0
   -4.7219   -1.5502   -0.3674 H   0  0  0  0  0  0  0  0  0  0  0  0
   -1.8907    1.5006   -1.5003 H   0  0  0  0  0  0  0  0  0  0  0  0
   -6.3625    0.1787    0.2000 H   0  0  0  0  0  0  0  0  0  0  0  0
   -3.5031    3.2261   -0.9377 H   0  0  0  0  0  0  0  0  0  0  0  0
    3.6061    0.5074    2.9012 H   0  0  0  0  0  0  0  0  0  0  0  0
    1.3497    2.3139   -0.3004 H   0  0  0  0  0  0  0  0  0  0  0  0
    5.6567    0.7165    1.5784 H   0  0  0  0  0  0  0  0  0  0  0  0
    3.4084    2.5208   -1.6309 H   0  0  0  0  0  0  0  0  0  0  0  0
   -6.2154    4.7990    0.0361 H   0  0  0  0  0  0  0  0  0  0  0  0
  1 33  1  0  0  0  0
  2 33  1  0  0  0  0
  3 33  1  0  0  0  0
  4 17  2  0  0  0  0
  5 32  1  0  0  0  0
  5 54  1  0  0  0  0
  6 32  2  0  0  0  0
  7 11  1  0  0  0  0
  7 13  1  0  0  0  0
  7 16  1  0  0  0  0
  8 14  1  0  0  0  0
  8 19  1  0  0  0  0
  8 41  1  0  0  0  0
  9 15  1  0  0  0  0
  9 19  2  0  0  0  0
 10 17  1  0  0  0  0
 10 20  1  0  0  0  0
 10 43  1  0  0  0  0
 11 12  1  0  0  0  0
 11 17  1  0  0  0  0
 11 34  1  0  0  0  0
 12 15  1  0  0  0  0
 12 35  1  0  0  0  0
 12 36  1  0  0  0  0
 13 14  1  0  0  0  0
 13 37  1  0  0  0  0
 13 38  1  0  0  0  0
 14 15  2  0  0  0  0
 16 18  1  0  0  0  0
 16 39  1  0  0  0  0
 16 40  1  0  0  0  0
 18 21  2  0  0  0  0
 18 22  1  0  0  0  0
 19 42  1  0  0  0  0
 20 23  1  0  0  0  0
 20 44  1  0  0  0  0
 20 45  1  0  0  0  0
 21 24  1  0  0  0  0
 21 46  1  0  0  0  0
 22 25  2  0  0  0  0
 22 47  1  0  0  0  0
 23 27  2  0  0  0  0
 23 28  1  0  0  0  0
 24 26  2  0  0  0  0
 24 48  1  0  0  0  0
 25 26  1  0  0  0  0
 25 49  1  0  0  0  0
 26 32  1  0  0  0  0
 27 29  1  0  0  0  0
 27 50  1  0  0  0  0
 28 30  2  0  0  0  0
 28 51  1  0  0  0  0
 29 31  2  0  0  0  0
 29 52  1  0  0  0  0
 30 31  1  0  0  0  0
 30 53  1  0  0  0  0
 31 33  1  0  0  0  0
M  END
> <PUBCHEM_COMPOUND_CID>
26745413

> <PUBCHEM_CONFORMER_RMSD>
1

> <PUBCHEM_CONFORMER_DIVERSEORDER>
2
71
60
84
90
75
14
44
56
20
13
43
49
28
80
46
41
25
32
79
64
24
62
72
22
26
89
34
31
54
95
19
7
65
3
38
67
47
45
51
18
11
53
48
93
85
27
52
77
88
10
42
30
66
33
83
37
86
58
8
21
35
92
16
76
39
96
81
94
61
12
57
70
68
69
23
50
78
29
59
4
55
74
97
87
15
6
91
17
40
9
36
82
1
73
5
63

> <PUBCHEM_MMFF94_PARTIAL_CHARGES>
45
1 -0.34
10 -0.73
11 0.33
12 0.18
13 0.45
14 -0.33
15 0.05
16 0.41
17 0.57
18 -0.14
19 0.04
2 -0.34
20 0.44
21 -0.15
22 -0.15
23 -0.14
24 -0.15
25 -0.15
26 0.09
27 -0.15
28 -0.15
29 -0.15
3 -0.34
30 -0.15
31 -0.14
32 0.63
33 1.16
4 -0.57
41 0.27
42 0.15
43 0.37
46 0.15
47 0.15
48 0.15
49 0.15
5 -0.65
50 0.15
51 0.15
52 0.15
53 0.15
54 0.5
6 -0.57
7 -0.81
8 0.03
9 -0.57

> <PUBCHEM_EFFECTIVE_ROTOR_COUNT>
8.8

> <PUBCHEM_PHARMACOPHORE_FEATURES>
12
1 10 donor
1 4 acceptor
1 5 acceptor
1 6 acceptor
1 7 cation
1 8 donor
3 5 6 32 anion
3 8 9 19 cation
5 8 9 14 15 19 rings
6 18 21 22 24 25 26 rings
6 23 27 28 29 30 31 rings
6 7 11 12 13 14 15 rings

> <PUBCHEM_HEAVY_ATOM_COUNT>
33

> <PUBCHEM_ATOM_DEF_STEREO_COUNT>
1

> <PUBCHEM_ATOM_UDEF_STEREO_COUNT>
0

> <PUBCHEM_BOND_DEF_STEREO_COUNT>
0

> <PUBCHEM_BOND_UDEF_STEREO_COUNT>
0

> <PUBCHEM_ISOTOPIC_ATOM_COUNT>
0

> <PUBCHEM_COMPONENT_COUNT>
1

> <PUBCHEM_CACTVS_TAUTO_COUNT>
4

> <PUBCHEM_CONFORMER_ID>
01981A4500000002

> <PUBCHEM_MMFF94_ENERGY>
76.8709

> <PUBCHEM_FEATURE_SELFOVERLAP>
61.051

> <PUBCHEM_SHAPE_FINGERPRINT>
10190108 129 18198343056432146391
10369192 42 18334859424583934829
105312 117 18338796818350432790
10673678 19 18337961077659764903
10675989 125 18200876154505981912
10721379 63 17985271759494537303
107951 10 18343018938474361598
11200772 48 18271530883439288324
11445158 3 17753016468257599378
11578080 2 18340217293654593467
12160290 23 17612834456675407627
12788726 201 17684359933903020051
13690498 29 17833558169246144930
13757389 114 18265619973041300207
14114211 68 18341897338484020225
14251757 5 18267022932851992632
14675019 173 17119173123460008817
14713325 29 18117843419661363467
14840074 17 17531240665140836037
15119646 57 17460888534081094436
15163728 17 18409729547653103799
15230672 131 18408886248854145446
15297060 5 18413673508763221633
15439362 3 18339080359016404682
16120349 67 18411423894887234977
16991971 28 17838601608099125991
16991981 162 17903934583644997957
17809404 112 16700324464111790162
17899979 19 18196651788394726618
19304671 126 16844994776447619089
19309040 13 16951712344589323326
20642791 178 18267849636393919642
21033648 29 18271238426009811576
21458453 9 14201978889776570709
22440779 20 17539140849095834642
23559900 14 17839729380373584863
244849 19 17972624116585824947
24771750 20 18269556048834223999
3298306 158 18272927254316163118
3411729 13 18264767663000001421
3418910 222 17329429446559950126
3610482 184 17387139869906155364
3729539 64 18059864947869244174
4015057 19 16199589233222666200
4058900 60 18411987922866599139
4394409 98 18339643335758631742
44062 13 18124032601385630622
508706 21 18126849537122481390
5265222 85 18340207500201347349
563151 40 18271806861116433383
58260988 587 18265903467090567547
6376802 90 17984411117316723576
6523845 18 17988365974763249291
6703917 75 18339372967018033365
6786 2 18409445895081040471

> <PUBCHEM_SHAPE_MULTIPOLES>
619.77
14.11
6.19
1.82
1.96
8.89
-0.58
-22.98
4.31
-1.89
1.17
1.81
0.04
-0.54

> <PUBCHEM_SHAPE_SELFOVERLAP>
1354.487

> <PUBCHEM_SHAPE_VOLUME>
337.3

> <PUBCHEM_COORDINATE_TYPE>
2
5
10

$$$$
