75536929
  -OEChem-12032416333D

 40 42  0     1  0  0  0  0  0999 V2000
   -4.1985    0.9410   -0.2448 F   0  0  0  0  0  0  0  0  0  0  0  0
    0.6682    3.5515   -0.5325 O   0  0  0  0  0  0  0  0  0  0  0  0
    2.0623    0.2989   -1.1906 O   0  0  0  0  0  0  0  0  0  0  0  0
   -1.0997    1.2254    0.5579 N   0  0  2  0  0  0  0  0  0  0  0  0
    3.1399   -0.1924    0.8101 N   0  0  0  0  0  0  0  0  0  0  0  0
    4.7653   -2.0288   -0.5507 N   0  0  0  0  0  0  0  0  0  0  0  0
    0.0739    0.4465    0.1479 C   0  0  0  0  0  0  0  0  0  0  0  0
    1.2796    1.2119   -0.4200 C   0  0  2  0  0  0  0  0  0  0  0  0
   -0.7833    2.5134    1.1769 C   0  0  0  0  0  0  0  0  0  0  0  0
    0.9123    2.3876   -1.3152 C   0  0  0  0  0  0  0  0  0  0  0  0
   -1.9651    0.4162    1.4170 C   0  0  0  0  0  0  0  0  0  0  0  0
   -0.6052    3.5813    0.0970 C   0  0  0  0  0  0  0  0  0  0  0  0
   -2.6816   -0.6562    0.6401 C   0  0  0  0  0  0  0  0  0  0  0  0
   -3.7759   -0.3281   -0.1600 C   0  0  0  0  0  0  0  0  0  0  0  0
   -2.2490   -1.9798    0.7215 C   0  0  0  0  0  0  0  0  0  0  0  0
    3.0164   -0.4101   -0.5142 C   0  0  0  0  0  0  0  0  0  0  0  0
   -4.4377   -1.3235   -0.8788 C   0  0  0  0  0  0  0  0  0  0  0  0
   -2.9109   -2.9753    0.0027 C   0  0  0  0  0  0  0  0  0  0  0  0
   -4.0052   -2.6473   -0.7975 C   0  0  0  0  0  0  0  0  0  0  0  0
    3.8148   -1.3121   -1.1826 C   0  0  0  0  0  0  0  0  0  0  0  0
    4.0904   -0.9091    1.4420 C   0  0  0  0  0  0  0  0  0  0  0  0
    4.8888   -1.8110    0.7737 C   0  0  0  0  0  0  0  0  0  0  0  0
    0.4442   -0.1554    0.9891 H   0  0  0  0  0  0  0  0  0  0  0  0
   -0.2452   -0.2789   -0.6123 H   0  0  0  0  0  0  0  0  0  0  0  0
    1.8585    1.6416    0.4091 H   0  0  0  0  0  0  0  0  0  0  0  0
    0.0901    2.4450    1.8362 H   0  0  0  0  0  0  0  0  0  0  0  0
   -1.6244    2.8505    1.7959 H   0  0  0  0  0  0  0  0  0  0  0  0
    1.7577    2.6257   -1.9711 H   0  0  0  0  0  0  0  0  0  0  0  0
    0.0646    2.1670   -1.9755 H   0  0  0  0  0  0  0  0  0  0  0  0
   -2.7505    1.0365    1.8713 H   0  0  0  0  0  0  0  0  0  0  0  0
   -1.4141   -0.0090    2.2669 H   0  0  0  0  0  0  0  0  0  0  0  0
   -1.3981    3.5357   -0.6601 H   0  0  0  0  0  0  0  0  0  0  0  0
   -0.6868    4.5660    0.5710 H   0  0  0  0  0  0  0  0  0  0  0  0
   -1.3973   -2.2495    1.3405 H   0  0  0  0  0  0  0  0  0  0  0  0
   -5.2896   -1.0678   -1.5019 H   0  0  0  0  0  0  0  0  0  0  0  0
   -2.5739   -4.0058    0.0658 H   0  0  0  0  0  0  0  0  0  0  0  0
   -4.5204   -3.4223   -1.3573 H   0  0  0  0  0  0  0  0  0  0  0  0
    3.7189   -1.4902   -2.2470 H   0  0  0  0  0  0  0  0  0  0  0  0
    4.1900   -0.7347    2.5062 H   0  0  0  0  0  0  0  0  0  0  0  0
    5.6523   -2.3865    1.2823 H   0  0  0  0  0  0  0  0  0  0  0  0
  1 14  1  0  0  0  0
  2 10  1  0  0  0  0
  2 12  1  0  0  0  0
  3  8  1  0  0  0  0
  3 16  1  0  0  0  0
  4  7  1  0  0  0  0
  4  9  1  0  0  0  0
  4 11  1  0  0  0  0
  5 16  2  0  0  0  0
  5 21  1  0  0  0  0
  6 20  2  0  0  0  0
  6 22  1  0  0  0  0
  7  8  1  0  0  0  0
  7 23  1  0  0  0  0
  7 24  1  0  0  0  0
  8 10  1  0  0  0  0
  8 25  1  0  0  0  0
  9 12  1  0  0  0  0
  9 26  1  0  0  0  0
  9 27  1  0  0  0  0
 10 28  1  0  0  0  0
 10 29  1  0  0  0  0
 11 13  1  0  0  0  0
 11 30  1  0  0  0  0
 11 31  1  0  0  0  0
 12 32  1  0  0  0  0
 12 33  1  0  0  0  0
 13 14  1  0  0  0  0
 13 15  2  0  0  0  0
 14 17  2  0  0  0  0
 15 18  1  0  0  0  0
 15 34  1  0  0  0  0
 16 20  1  0  0  0  0
 17 19  1  0  0  0  0
 17 35  1  0  0  0  0
 18 19  2  0  0  0  0
 18 36  1  0  0  0  0
 19 37  1  0  0  0  0
 20 38  1  0  0  0  0
 21 22  2  0  0  0  0
 21 39  1  0  0  0  0
 22 40  1  0  0  0  0
M  END
> <PUBCHEM_COMPOUND_CID>
75536929

> <PUBCHEM_CONFORMER_RMSD>
1

> <PUBCHEM_CONFORMER_DIVERSEORDER>
1
19
136
83
67
39
120
134
105
81
140
17
143
91
109
122
25
18
129
62
119
128
7
86
133
130
2
114
49
113
78
37
97
6
82
84
64
127
137
8
42
26
60
106
28
102
138
115
73
110
88
35
141
85
139
76
44
126
71
80
63
142
101
24
57
15
118
104
27
87
13
69
4
89
123
31
107
93
58
100
72
51
5
38
22
65
55
70
124
46
79
9
56
96
32
103
94
10
74
40
45
121
75
77
34
68
16
66
21
23
3
90
33
92
11
125
43
135
50
111
14
131
20
112
47
12
48
54
41
108
30
95
132
116
98
117
36
99
52
53
59
29
61

> <PUBCHEM_MMFF94_PARTIAL_CHARGES>
29
1 -0.19
10 0.28
11 0.41
12 0.28
13 -0.14
14 0.19
15 -0.15
16 0.39
17 -0.15
18 -0.15
19 -0.15
2 -0.56
20 0.16
21 0.16
22 0.16
3 -0.36
34 0.15
35 0.15
36 0.15
37 0.15
38 0.15
39 0.15
4 -0.81
40 0.15
5 -0.62
6 -0.62
7 0.27
8 0.28
9 0.27

> <PUBCHEM_EFFECTIVE_ROTOR_COUNT>
5.4

> <PUBCHEM_PHARMACOPHORE_FEATURES>
6
1 2 acceptor
1 4 cation
1 6 acceptor
6 13 14 15 17 18 19 rings
6 5 6 16 20 21 22 rings
7 2 4 7 8 9 10 12 rings

> <PUBCHEM_HEAVY_ATOM_COUNT>
22

> <PUBCHEM_ATOM_DEF_STEREO_COUNT>
1

> <PUBCHEM_ATOM_UDEF_STEREO_COUNT>
0

> <PUBCHEM_BOND_DEF_STEREO_COUNT>
0

> <PUBCHEM_BOND_UDEF_STEREO_COUNT>
0

> <PUBCHEM_ISOTOPIC_ATOM_COUNT>
0

> <PUBCHEM_COMPONENT_COUNT>
1

> <PUBCHEM_CACTVS_TAUTO_COUNT>
1

> <PUBCHEM_CONFORMER_ID>
04809A2100000001

> <PUBCHEM_MMFF94_ENERGY>
69.6543

> <PUBCHEM_FEATURE_SELFOVERLAP>
30.447

> <PUBCHEM_SHAPE_FINGERPRINT>
11265709 11 18409452483454799448
11552529 35 18199189478094108296
11578080 2 17676761007839588884
12363563 72 18412552036677159550
12553582 1 18337129907125243962
12788726 201 18262811652872234576
13004483 165 18410847746556893280
13083527 12 18338789130728712280
13931106 250 18191018997949687420
14081887 123 18270676442402757570
14341114 328 12967129440836199615
16752209 62 18041837290426038376
17492 89 18194403522642709095
19032999 76 18336248086257900386
20600515 1 18202010897397221529
20621476 51 18264483975930601578
20626108 58 18340477980071693259
20671657 53 18338234972282643355
21250096 35 18334573555523097842
21452121 199 18340205318436582280
22113638 7 18270395113133746959
23419403 2 18057293215493618137
23559900 14 18341888644863259193
3004659 81 18260550030489494574
3027735 51 18123180204563388543
339767 52 18335696148548085994
397830 11 18126263283462775122
44062 13 18335419084719033743
463206 1 18187361030154454011
5924683 9 18266454300851641018
602551 16 18196094348635594530
633830 44 10737551839295005387
6433294 58 17690002661989531555
7471813 234 18260269642476951068
81228 2 18198643046047019065
88748 71 18264495151414562619
9709674 26 18119528988525283219

> <PUBCHEM_SHAPE_MULTIPOLES>
418.79
9.57
3.96
1.29
3.53
2.63
0.09
-9.92
-0.58
-0.88
-0.39
0.54
0.05
-0.93

> <PUBCHEM_SHAPE_SELFOVERLAP>
889

> <PUBCHEM_SHAPE_VOLUME>
231.9

> <PUBCHEM_COORDINATE_TYPE>
2
5
10

$$$$
