51137713
  -OEChem-12032416293D

 34 36  0     1  0  0  0  0  0999 V2000
    3.7129    0.2145   -0.7723 O   0  0  0  0  0  0  0  0  0  0  0  0
   -2.0365   -1.8441    1.7031 O   0  0  0  0  0  0  0  0  0  0  0  0
   -0.4911   -1.3183    0.0511 N   0  0  0  0  0  0  0  0  0  0  0  0
    2.1873    0.7835    0.7619 N   0  0  0  0  0  0  0  0  0  0  0  0
    3.3716    1.4221    1.0797 N   0  0  0  0  0  0  0  0  0  0  0  0
    1.5093   -0.8059   -1.1318 C   0  0  1  0  0  0  0  0  0  0  0  0
    1.5589   -2.2606   -0.6392 C   0  0  0  0  0  0  0  0  0  0  0  0
    0.0082   -0.4943   -1.0509 C   0  0  0  0  0  0  0  0  0  0  0  0
    0.4912   -2.3163    0.4449 C   0  0  0  0  0  0  0  0  0  0  0  0
    2.4331    0.0905   -0.3254 C   0  0  0  0  0  0  0  0  0  0  0  0
   -1.6893   -1.1734    0.7330 C   0  0  0  0  0  0  0  0  0  0  0  0
   -2.6123   -0.1256    0.2701 C   0  0  0  0  0  0  0  0  0  0  0  0
    4.2333    1.0610    0.1579 C   0  0  0  0  0  0  0  0  0  0  0  0
   -3.1111   -0.1605   -1.0321 C   0  0  0  0  0  0  0  0  0  0  0  0
   -2.9899    0.9022    1.1341 C   0  0  0  0  0  0  0  0  0  0  0  0
    5.6432    1.4379   -0.0037 C   0  0  0  0  0  0  0  0  0  0  0  0
   -3.9874    0.8323   -1.4703 C   0  0  0  0  0  0  0  0  0  0  0  0
   -3.8663    1.8950    0.6961 C   0  0  0  0  0  0  0  0  0  0  0  0
   -4.3650    1.8601   -0.6061 C   0  0  0  0  0  0  0  0  0  0  0  0
    1.8393   -0.7448   -2.1764 H   0  0  0  0  0  0  0  0  0  0  0  0
    1.2734   -2.9294   -1.4612 H   0  0  0  0  0  0  0  0  0  0  0  0
    2.5398   -2.5776   -0.2716 H   0  0  0  0  0  0  0  0  0  0  0  0
   -0.2081    0.5648   -0.8830 H   0  0  0  0  0  0  0  0  0  0  0  0
   -0.4935   -0.8296   -1.9650 H   0  0  0  0  0  0  0  0  0  0  0  0
    0.8915   -2.0272    1.4229 H   0  0  0  0  0  0  0  0  0  0  0  0
    0.0232   -3.3012    0.5355 H   0  0  0  0  0  0  0  0  0  0  0  0
   -2.8468   -0.9656   -1.7125 H   0  0  0  0  0  0  0  0  0  0  0  0
   -2.6064    0.9416    2.1504 H   0  0  0  0  0  0  0  0  0  0  0  0
    5.9575    2.1162    0.7952 H   0  0  0  0  0  0  0  0  0  0  0  0
    5.7990    1.9436   -0.9612 H   0  0  0  0  0  0  0  0  0  0  0  0
    6.2845    0.5522    0.0291 H   0  0  0  0  0  0  0  0  0  0  0  0
   -4.3799    0.8024   -2.4825 H   0  0  0  0  0  0  0  0  0  0  0  0
   -4.1601    2.6954    1.3688 H   0  0  0  0  0  0  0  0  0  0  0  0
   -5.0482    2.6326   -0.9468 H   0  0  0  0  0  0  0  0  0  0  0  0
  1 10  1  0  0  0  0
  1 13  1  0  0  0  0
  2 11  2  0  0  0  0
  3  8  1  0  0  0  0
  3  9  1  0  0  0  0
  3 11  1  0  0  0  0
  4  5  1  0  0  0  0
  4 10  2  0  0  0  0
  5 13  2  0  0  0  0
  6  7  1  0  0  0  0
  6  8  1  0  0  0  0
  6 10  1  0  0  0  0
  6 20  1  0  0  0  0
  7  9  1  0  0  0  0
  7 21  1  0  0  0  0
  7 22  1  0  0  0  0
  8 23  1  0  0  0  0
  8 24  1  0  0  0  0
  9 25  1  0  0  0  0
  9 26  1  0  0  0  0
 11 12  1  0  0  0  0
 12 14  2  0  0  0  0
 12 15  1  0  0  0  0
 13 16  1  0  0  0  0
 14 17  1  0  0  0  0
 14 27  1  0  0  0  0
 15 18  2  0  0  0  0
 15 28  1  0  0  0  0
 16 29  1  0  0  0  0
 16 30  1  0  0  0  0
 16 31  1  0  0  0  0
 17 19  2  0  0  0  0
 17 32  1  0  0  0  0
 18 19  1  0  0  0  0
 18 33  1  0  0  0  0
 19 34  1  0  0  0  0
M  END
> <PUBCHEM_COMPOUND_CID>
51137713

> <PUBCHEM_CONFORMER_RMSD>
0.6

> <PUBCHEM_CONFORMER_DIVERSEORDER>
1
31
41
47
10
45
29
17
14
48
12
15
32
30
49
18
16
33
25
24
35
8
44
50
21
46
28
2
37
26
19
40
51
36
39
38
9
3
42
23
20
22
34
43
11
27
6
4
5
13
7

> <PUBCHEM_MMFF94_PARTIAL_CHARGES>
23
1 -0.28
10 0.3
11 0.54
12 0.09
13 0.3
14 -0.15
15 -0.15
16 0.18
17 -0.15
18 -0.15
19 -0.15
2 -0.57
27 0.15
28 0.15
3 -0.66
32 0.15
33 0.15
34 0.15
4 -0.34
5 -0.34
6 0.18
8 0.3
9 0.3

> <PUBCHEM_EFFECTIVE_ROTOR_COUNT>
4

> <PUBCHEM_PHARMACOPHORE_FEATURES>
4
1 2 acceptor
5 1 4 5 10 13 rings
5 3 6 7 8 9 rings
6 12 14 15 17 18 19 rings

> <PUBCHEM_HEAVY_ATOM_COUNT>
19

> <PUBCHEM_ATOM_DEF_STEREO_COUNT>
1

> <PUBCHEM_ATOM_UDEF_STEREO_COUNT>
0

> <PUBCHEM_BOND_DEF_STEREO_COUNT>
0

> <PUBCHEM_BOND_UDEF_STEREO_COUNT>
0

> <PUBCHEM_ISOTOPIC_ATOM_COUNT>
0

> <PUBCHEM_COMPONENT_COUNT>
1

> <PUBCHEM_CACTVS_TAUTO_COUNT>
1

> <PUBCHEM_CONFORMER_ID>
030C4CB100000001

> <PUBCHEM_MMFF94_ENERGY>
41.3961

> <PUBCHEM_FEATURE_SELFOVERLAP>
20.297

> <PUBCHEM_SHAPE_FINGERPRINT>
10498660 4 18343298162993794569
10968037 57 8646763396501982169
11543360 7 17132109130836744911
12077114 3 18336828701147734354
12363563 72 10807930466292552933
12403259 415 18336841826341138951
12553582 1 11671781546668903597
12596602 18 16298109812656534952
12633257 1 17530681030553643564
12788726 201 18047736376489573283
12892183 10 14273463578052096941
13103583 49 13551472518910722461
13134695 92 17834114147729621575
13464514 151 18270968938012036778
13583140 156 14346084165162015495
13675066 3 15140957335728780188
13740256 8 8790884094962596812
14123255 352 18409165528210790236
14178342 30 17603879926298889891
14251764 30 12613027229091872112
14251764 75 17769104440912561817
14466204 15 18342727508470346920
14848178 96 18412262813737832452
14957384 54 18115016528364439728
15061688 2 18187075123160974143
15295992 7 18046646507463309747
17780758 139 12613021799767951956
17980427 26 18045484344916063007
1813 80 9222949330484503234
18186145 218 18117567232311302183
19141452 34 10665223748770643301
193927 3 8574424365762247685
19752476 56 18126848196691452505
20281475 54 8070024480309128982
20871999 31 11743849048821966515
21033648 29 18270958059261153760
21279426 13 18342189830383920614
21618674 25 18335419028636045311
21713013 43 14404888203263228741
22079108 93 18264785285582951369
22950370 63 8214144092417369652
231179 274 18272091599919694028
23402655 69 17561367257670965492
23557571 272 18337679727712021787
23559900 14 18115604651411515798
23622692 88 11025787649319097559
27216 239 18335708303151955355
2838139 119 18060414712257235704
4028521 119 18131067142944980917
474 4 18409729551953527957
5104073 3 18188217485820050139
5486654 36 9367345981095117485
5895379 119 16984624867002648752
6328613 192 18337956809570542260
633830 44 18272094868231551108
7097593 13 13190640337973483959
81228 2 17679049181773371707
84936 182 18269551633290799747
90316 7 16515398586303018263
9981440 41 18410569595832512619

> <PUBCHEM_SHAPE_MULTIPOLES>
364.33
9.86
2.3
1.32
5.45
0.66
-0.03
-8.34
0.71
0.12
-0.43
-0.9
0.12
0.8

> <PUBCHEM_SHAPE_SELFOVERLAP>
783.969

> <PUBCHEM_SHAPE_VOLUME>
202.5

> <PUBCHEM_COORDINATE_TYPE>
2
5
10

$$$$
