45360796
  -OEChem-12032416343D

 69 72  0     1  0  0  0  0  0999 V2000
    1.3322   -0.7808    0.8641 O   0  0  0  0  0  0  0  0  0  0  0  0
   -3.8807    3.1596    0.0862 O   0  0  0  0  0  0  0  0  0  0  0  0
   -5.3002   -3.8264   -0.2235 O   0  0  0  0  0  0  0  0  0  0  0  0
   -6.7688   -2.4969    0.9647 O   0  0  0  0  0  0  0  0  0  0  0  0
    0.9722    2.8457   -0.4429 N   0  0  1  0  0  0  0  0  0  0  0  0
    3.6315    0.3817    0.0552 N   0  0  1  0  0  0  0  0  0  0  0  0
    0.4695    1.1157    1.8104 N   0  0  0  0  0  0  0  0  0  0  0  0
   -3.8646    0.9874   -0.7374 N   0  0  0  0  0  0  0  0  0  0  0  0
    2.3780    2.4423   -0.2184 C   0  0  1  0  0  0  0  0  0  0  0  0
    2.6632    1.2538    0.7462 C   0  0  1  0  0  0  0  0  0  0  0  0
    3.1134    2.0006   -1.4975 C   0  0  0  0  0  0  0  0  0  0  0  0
    0.2759    3.3558    0.7712 C   0  0  2  0  0  0  0  0  0  0  0  0
    4.2793    1.1903   -0.9716 C   0  0  0  0  0  0  0  0  0  0  0  0
    0.5317    2.5429    2.0554 C   0  0  0  0  0  0  0  0  0  0  0  0
    1.4417    0.4177    1.1195 C   0  0  0  0  0  0  0  0  0  0  0  0
   -1.2496    3.3939    0.5423 C   0  0  0  0  0  0  0  0  0  0  0  0
    4.5961   -0.2372    0.9554 C   0  0  0  0  0  0  0  0  0  0  0  0
    0.8776    3.8285   -1.5357 C   0  0  0  0  0  0  0  0  0  0  0  0
   -1.7707    2.0882   -0.0261 C   0  0  0  0  0  0  0  0  0  0  0  0
    5.2132   -1.4714    0.3532 C   0  0  0  0  0  0  0  0  0  0  0  0
   -3.2655    2.1345   -0.2182 C   0  0  0  0  0  0  0  0  0  0  0  0
   -5.2858   -1.5306   -0.6657 C   0  0  0  0  0  0  0  0  0  0  0  0
   -5.3064    0.9694   -0.9924 C   0  0  0  0  0  0  0  0  0  0  0  0
   -3.1595   -0.2458   -1.1086 C   0  0  0  0  0  0  0  0  0  0  0  0
   -5.9695   -0.2129   -0.2906 C   0  0  0  0  0  0  0  0  0  0  0  0
   -3.7784   -1.4543   -0.4090 C   0  0  0  0  0  0  0  0  0  0  0  0
    4.6185   -2.7172    0.5540 C   0  0  0  0  0  0  0  0  0  0  0  0
    6.3792   -1.3694   -0.4055 C   0  0  0  0  0  0  0  0  0  0  0  0
   -5.8867   -2.6476    0.1303 C   0  0  0  0  0  0  0  0  0  0  0  0
    5.1899   -3.8610   -0.0038 C   0  0  0  0  0  0  0  0  0  0  0  0
    6.9506   -2.5130   -0.9633 C   0  0  0  0  0  0  0  0  0  0  0  0
    6.3560   -3.7588   -0.7623 C   0  0  0  0  0  0  0  0  0  0  0  0
   -5.7834   -4.9845    0.4645 C   0  0  0  0  0  0  0  0  0  0  0  0
    2.9274    3.3132    0.1717 H   0  0  0  0  0  0  0  0  0  0  0  0
    3.1081    1.6494    1.6691 H   0  0  0  0  0  0  0  0  0  0  0  0
    3.4588    2.8495   -2.0966 H   0  0  0  0  0  0  0  0  0  0  0  0
    2.4692    1.3701   -2.1251 H   0  0  0  0  0  0  0  0  0  0  0  0
    0.6082    4.3817    0.9827 H   0  0  0  0  0  0  0  0  0  0  0  0
    4.7205    0.5859   -1.7695 H   0  0  0  0  0  0  0  0  0  0  0  0
    5.0465    1.8575   -0.5589 H   0  0  0  0  0  0  0  0  0  0  0  0
   -0.2068    2.7711    2.8321 H   0  0  0  0  0  0  0  0  0  0  0  0
    1.5083    2.7938    2.4815 H   0  0  0  0  0  0  0  0  0  0  0  0
   -1.7620    3.6300    1.4846 H   0  0  0  0  0  0  0  0  0  0  0  0
   -1.5081    4.2222   -0.1290 H   0  0  0  0  0  0  0  0  0  0  0  0
    5.3762    0.4671    1.2749 H   0  0  0  0  0  0  0  0  0  0  0  0
    4.0992   -0.5462    1.8858 H   0  0  0  0  0  0  0  0  0  0  0  0
   -0.3329    0.5987    2.1564 H   0  0  0  0  0  0  0  0  0  0  0  0
   -0.1565    4.1106   -1.7516 H   0  0  0  0  0  0  0  0  0  0  0  0
    1.2474    3.4167   -2.4800 H   0  0  0  0  0  0  0  0  0  0  0  0
    1.4405    4.7410   -1.3089 H   0  0  0  0  0  0  0  0  0  0  0  0
   -1.5919    1.2567    0.6528 H   0  0  0  0  0  0  0  0  0  0  0  0
   -1.3199    1.8726   -0.9998 H   0  0  0  0  0  0  0  0  0  0  0  0
   -5.4775   -1.7336   -1.7274 H   0  0  0  0  0  0  0  0  0  0  0  0
   -5.4459    0.8987   -2.0776 H   0  0  0  0  0  0  0  0  0  0  0  0
   -5.7729    1.9033   -0.6633 H   0  0  0  0  0  0  0  0  0  0  0  0
   -2.0945   -0.2025   -0.8756 H   0  0  0  0  0  0  0  0  0  0  0  0
   -3.2461   -0.3511   -2.1967 H   0  0  0  0  0  0  0  0  0  0  0  0
   -5.9141   -0.0544    0.7950 H   0  0  0  0  0  0  0  0  0  0  0  0
   -7.0339   -0.2450   -0.5527 H   0  0  0  0  0  0  0  0  0  0  0  0
   -3.2770   -2.3643   -0.7590 H   0  0  0  0  0  0  0  0  0  0  0  0
   -3.5885   -1.3864    0.6706 H   0  0  0  0  0  0  0  0  0  0  0  0
    3.7089   -2.8108    1.1412 H   0  0  0  0  0  0  0  0  0  0  0  0
    6.8564   -0.4063   -0.5656 H   0  0  0  0  0  0  0  0  0  0  0  0
    4.7268   -4.8309    0.1522 H   0  0  0  0  0  0  0  0  0  0  0  0
    7.8592   -2.4338   -1.5530 H   0  0  0  0  0  0  0  0  0  0  0  0
    6.8012   -4.6492   -1.1966 H   0  0  0  0  0  0  0  0  0  0  0  0
   -5.6013   -4.8897    1.5392 H   0  0  0  0  0  0  0  0  0  0  0  0
   -6.8495   -5.1270    0.2637 H   0  0  0  0  0  0  0  0  0  0  0  0
   -5.2365   -5.8545    0.0913 H   0  0  0  0  0  0  0  0  0  0  0  0
  1 15  2  0  0  0  0
  2 21  2  0  0  0  0
  3 29  1  0  0  0  0
  3 33  1  0  0  0  0
  4 29  2  0  0  0  0
  5  9  1  0  0  0  0
  5 12  1  0  0  0  0
  5 18  1  0  0  0  0
  6 10  1  0  0  0  0
  6 13  1  0  0  0  0
  6 17  1  0  0  0  0
  7 14  1  0  0  0  0
  7 15  1  0  0  0  0
  7 47  1  0  0  0  0
  8 21  1  0  0  0  0
  8 23  1  0  0  0  0
  8 24  1  0  0  0  0
  9 10  1  0  0  0  0
  9 11  1  0  0  0  0
  9 34  1  0  0  0  0
 10 15  1  0  0  0  0
 10 35  1  0  0  0  0
 11 13  1  0  0  0  0
 11 36  1  0  0  0  0
 11 37  1  0  0  0  0
 12 14  1  0  0  0  0
 12 16  1  0  0  0  0
 12 38  1  0  0  0  0
 13 39  1  0  0  0  0
 13 40  1  0  0  0  0
 14 41  1  0  0  0  0
 14 42  1  0  0  0  0
 16 19  1  0  0  0  0
 16 43  1  0  0  0  0
 16 44  1  0  0  0  0
 17 20  1  0  0  0  0
 17 45  1  0  0  0  0
 17 46  1  0  0  0  0
 18 48  1  0  0  0  0
 18 49  1  0  0  0  0
 18 50  1  0  0  0  0
 19 21  1  0  0  0  0
 19 51  1  0  0  0  0
 19 52  1  0  0  0  0
 20 27  2  0  0  0  0
 20 28  1  0  0  0  0
 22 25  1  0  0  0  0
 22 26  1  0  0  0  0
 22 29  1  0  0  0  0
 22 53  1  0  0  0  0
 23 25  1  0  0  0  0
 23 54  1  0  0  0  0
 23 55  1  0  0  0  0
 24 26  1  0  0  0  0
 24 56  1  0  0  0  0
 24 57  1  0  0  0  0
 25 58  1  0  0  0  0
 25 59  1  0  0  0  0
 26 60  1  0  0  0  0
 26 61  1  0  0  0  0
 27 30  1  0  0  0  0
 27 62  1  0  0  0  0
 28 31  2  0  0  0  0
 28 63  1  0  0  0  0
 30 32  2  0  0  0  0
 30 64  1  0  0  0  0
 31 32  1  0  0  0  0
 31 65  1  0  0  0  0
 32 66  1  0  0  0  0
 33 67  1  0  0  0  0
 33 68  1  0  0  0  0
 33 69  1  0  0  0  0
M  END
> <PUBCHEM_COMPOUND_CID>
45360796

> <PUBCHEM_CONFORMER_RMSD>
1.4

> <PUBCHEM_CONFORMER_DIVERSEORDER>
1
45
43
91
47
90
8
38
128
89
122
103
56
76
121
71
139
80
68
18
4
95
7
46
126
88
44
136
98
40
84
54
79
125
134
2
59
132
113
119
99
70
85
93
81
140
123
42
12
33
94
74
75
9
29
86
146
112
17
39
114
83
30
24
129
105
64
73
58
141
65
106
5
108
92
52
32
55
130
72
48
120
41
124
53
66
27
62
19
28
67
69
15
131
97
60
36
3
100
22
101
138
118
26
16
63
107
21
110
31
135
127
77
115
144
117
34
20
51
116
133
6
50
87
145
14
104
137
13
11
143
78
109
23
57
49
142
102
37
82
25
111
61
35
96
10

> <PUBCHEM_MMFF94_PARTIAL_CHARGES>
35
1 -0.57
10 0.33
12 0.27
13 0.27
14 0.3
15 0.57
17 0.41
18 0.27
19 0.06
2 -0.57
20 -0.14
21 0.57
22 0.06
23 0.3
24 0.3
27 -0.15
28 -0.15
29 0.66
3 -0.43
30 -0.15
31 -0.15
32 -0.15
33 0.28
4 -0.57
47 0.37
5 -0.81
6 -0.81
62 0.15
63 0.15
64 0.15
65 0.15
66 0.15
7 -0.73
8 -0.66
9 0.27

> <PUBCHEM_EFFECTIVE_ROTOR_COUNT>
10.6

> <PUBCHEM_PHARMACOPHORE_FEATURES>
10
1 1 acceptor
1 2 acceptor
1 4 acceptor
1 5 cation
1 6 cation
1 7 donor
5 6 9 10 11 13 rings
6 20 27 28 30 31 32 rings
6 8 22 23 24 25 26 rings
7 5 7 9 10 12 14 15 rings

> <PUBCHEM_HEAVY_ATOM_COUNT>
33

> <PUBCHEM_ATOM_DEF_STEREO_COUNT>
3

> <PUBCHEM_ATOM_UDEF_STEREO_COUNT>
0

> <PUBCHEM_BOND_DEF_STEREO_COUNT>
0

> <PUBCHEM_BOND_UDEF_STEREO_COUNT>
0

> <PUBCHEM_ISOTOPIC_ATOM_COUNT>
0

> <PUBCHEM_COMPONENT_COUNT>
1

> <PUBCHEM_CACTVS_TAUTO_COUNT>
3

> <PUBCHEM_CONFORMER_ID>
02B4269C00000001

> <PUBCHEM_MMFF94_ENERGY>
84.1486

> <PUBCHEM_FEATURE_SELFOVERLAP>
50.783

> <PUBCHEM_SHAPE_FINGERPRINT>
10042902 136 18338516314463865364
10169797 241 17917713543626798820
10391435 84 18339909421476532872
10622 236 18409727335739639468
10838868 217 11167678537608616259
10928967 22 17984981763719313367
11285246 1 18040998440247477523
11315621 136 18334576837289302396
11374522 301 17465685767542990499
11497681 19 18340208489182269308
117089 54 18337957899843447323
12422481 6 17274248440952009806
12633046 712 18338505413615628077
12633257 1 15697701701468892756
13383661 66 17916598531521009374
1361 4 18410293640009719278
1361 87 18261662753953812895
13690498 29 18041278756137282653
14040221 126 18126597659108247446
14251764 30 18410855486183114015
14420673 8 18413388709998170949
15001296 14 18334847282721470720
15019793 15 18052254291569956359
15274700 232 17837498445253899534
15728490 83 18411142415995215555
17492 89 18410572928869461189
17909252 39 18340204218872090544
18603816 31 18198352749133415907
19246450 95 17912948097440772377
20775438 99 17968945335046641248
20775530 9 18338782447199949815
21196832 93 18411420601116855950
229767 8 18337396070987364219
23379529 103 18410289242015988169
23559900 14 18337659893874724453
2748736 6 8934999243903945911
2838139 119 8430314645164097936
32027 91 18342165675018732385
42626532 9 17774992445420610457
437795 139 18337679616026730182
437795 163 18410016537963876486
439807 62 18410014334265747791
4435113 14 17629205901398184662
4756088 132 18267291226469557783
57527585 21 14707475950853179333
6201320 221 17478592965244852351
7970288 3 18410571803645661959

> <PUBCHEM_SHAPE_MULTIPOLES>
635.72
18.6
6.44
1.34
3.07
3.78
0.19
27.23
-3.23
2.65
0.01
-0.5
-0.78
1.07

> <PUBCHEM_SHAPE_SELFOVERLAP>
1332.105

> <PUBCHEM_SHAPE_VOLUME>
356.4

> <PUBCHEM_COORDINATE_TYPE>
2
5
10

$$$$
