26743391
  -OEChem-12032416173D

 52 55  0     1  0  0  0  0  0999 V2000
    5.5036   -0.5589    0.6047 S   0  0  0  0  0  0  0  0  0  0  0  0
    5.6872    1.2244   -1.7148 S   0  0  0  0  0  0  0  0  0  0  0  0
    6.5355   -1.3204   -0.0731 O   0  0  0  0  0  0  0  0  0  0  0  0
    5.4939   -0.4712    2.0523 O   0  0  0  0  0  0  0  0  0  0  0  0
   -7.3590    2.2199    0.2567 O   0  0  0  0  0  0  0  0  0  0  0  0
    3.9755   -1.0820    0.0738 N   0  0  0  0  0  0  0  0  0  0  0  0
   -2.7580   -0.8090   -0.3868 N   0  0  0  0  0  0  0  0  0  0  0  0
   -2.8030   -1.9484   -1.0981 N   0  0  0  0  0  0  0  0  0  0  0  0
    0.7709   -1.7172   -0.0094 C   0  0  2  0  0  0  0  0  0  0  0  0
    1.6313   -0.5383   -0.5104 C   0  0  0  0  0  0  0  0  0  0  0  0
    2.7563   -0.3724    0.5167 C   0  0  1  0  0  0  0  0  0  0  0  0
   -0.7036   -1.5450   -0.2935 C   0  0  0  0  0  0  0  0  0  0  0  0
    1.1245   -1.7808    1.4481 C   0  0  0  0  0  0  0  0  0  0  0  0
    2.2095   -1.0515    1.7279 C   0  0  0  0  0  0  0  0  0  0  0  0
   -1.5233   -0.5220    0.1167 C   0  0  0  0  0  0  0  0  0  0  0  0
   -1.5451   -2.3934   -1.0376 C   0  0  0  0  0  0  0  0  0  0  0  0
   -1.2375    0.6789    0.9279 C   0  0  0  0  0  0  0  0  0  0  0  0
   -1.1884   -3.6516   -1.7167 C   0  0  0  0  0  0  0  0  0  0  0  0
   -3.9160   -0.0473   -0.2260 C   0  0  0  0  0  0  0  0  0  0  0  0
    5.5545    1.0969   -0.0122 C   0  0  0  0  0  0  0  0  0  0  0  0
   -3.9548    1.2687   -0.6867 C   0  0  0  0  0  0  0  0  0  0  0  0
   -5.0344   -0.6015    0.3968 C   0  0  0  0  0  0  0  0  0  0  0  0
    5.5096    2.3319    0.5966 C   0  0  0  0  0  0  0  0  0  0  0  0
   -5.1118    2.0306   -0.5244 C   0  0  0  0  0  0  0  0  0  0  0  0
   -6.1914    0.1604    0.5591 C   0  0  0  0  0  0  0  0  0  0  0  0
   -6.2301    1.4764    0.0985 C   0  0  0  0  0  0  0  0  0  0  0  0
    5.5848    3.3966   -0.3471 C   0  0  0  0  0  0  0  0  0  0  0  0
    5.6845    2.9351   -1.6411 C   0  0  0  0  0  0  0  0  0  0  0  0
   -8.4653    1.5909    0.9021 C   0  0  0  0  0  0  0  0  0  0  0  0
    1.1233   -2.6453   -0.4780 H   0  0  0  0  0  0  0  0  0  0  0  0
    2.0083   -0.7308   -1.5224 H   0  0  0  0  0  0  0  0  0  0  0  0
    1.0581    0.3944   -0.5713 H   0  0  0  0  0  0  0  0  0  0  0  0
    2.9431    0.6889    0.6965 H   0  0  0  0  0  0  0  0  0  0  0  0
    0.5895   -2.3725    2.1777 H   0  0  0  0  0  0  0  0  0  0  0  0
    2.6464   -0.9737    2.7133 H   0  0  0  0  0  0  0  0  0  0  0  0
    3.8532   -2.0864   -0.1100 H   0  0  0  0  0  0  0  0  0  0  0  0
   -1.0834    1.5514    0.2850 H   0  0  0  0  0  0  0  0  0  0  0  0
   -2.0521    0.9011    1.6252 H   0  0  0  0  0  0  0  0  0  0  0  0
   -0.3399    0.5613    1.5390 H   0  0  0  0  0  0  0  0  0  0  0  0
   -0.8102   -4.3834   -0.9955 H   0  0  0  0  0  0  0  0  0  0  0  0
   -2.0486   -4.0992   -2.2258 H   0  0  0  0  0  0  0  0  0  0  0  0
   -0.4112   -3.4758   -2.4677 H   0  0  0  0  0  0  0  0  0  0  0  0
   -3.1000    1.7154   -1.1883 H   0  0  0  0  0  0  0  0  0  0  0  0
   -5.0191   -1.6244    0.7657 H   0  0  0  0  0  0  0  0  0  0  0  0
    5.4257    2.4683    1.6670 H   0  0  0  0  0  0  0  0  0  0  0  0
   -5.1372    3.0542   -0.8881 H   0  0  0  0  0  0  0  0  0  0  0  0
   -7.0227   -0.3316    1.0523 H   0  0  0  0  0  0  0  0  0  0  0  0
    5.5663    4.4477   -0.0899 H   0  0  0  0  0  0  0  0  0  0  0  0
    5.7557    3.5206   -2.5468 H   0  0  0  0  0  0  0  0  0  0  0  0
   -9.2761    2.3257    0.9429 H   0  0  0  0  0  0  0  0  0  0  0  0
   -8.2271    1.3201    1.9363 H   0  0  0  0  0  0  0  0  0  0  0  0
   -8.8363    0.7376    0.3243 H   0  0  0  0  0  0  0  0  0  0  0  0
  1  3  2  0  0  0  0
  1  4  2  0  0  0  0
  1  6  1  0  0  0  0
  1 20  1  0  0  0  0
  2 20  1  0  0  0  0
  2 28  1  0  0  0  0
  5 26  1  0  0  0  0
  5 29  1  0  0  0  0
  6 11  1  0  0  0  0
  6 36  1  0  0  0  0
  7  8  1  0  0  0  0
  7 15  1  0  0  0  0
  7 19  1  0  0  0  0
  8 16  2  0  0  0  0
  9 10  1  0  0  0  0
  9 12  1  0  0  0  0
  9 13  1  0  0  0  0
  9 30  1  0  0  0  0
 10 11  1  0  0  0  0
 10 31  1  0  0  0  0
 10 32  1  0  0  0  0
 11 14  1  0  0  0  0
 11 33  1  0  0  0  0
 12 15  2  0  0  0  0
 12 16  1  0  0  0  0
 13 14  2  0  0  0  0
 13 34  1  0  0  0  0
 14 35  1  0  0  0  0
 15 17  1  0  0  0  0
 16 18  1  0  0  0  0
 17 37  1  0  0  0  0
 17 38  1  0  0  0  0
 17 39  1  0  0  0  0
 18 40  1  0  0  0  0
 18 41  1  0  0  0  0
 18 42  1  0  0  0  0
 19 21  2  0  0  0  0
 19 22  1  0  0  0  0
 20 23  2  0  0  0  0
 21 24  1  0  0  0  0
 21 43  1  0  0  0  0
 22 25  2  0  0  0  0
 22 44  1  0  0  0  0
 23 27  1  0  0  0  0
 23 45  1  0  0  0  0
 24 26  2  0  0  0  0
 24 46  1  0  0  0  0
 25 26  1  0  0  0  0
 25 47  1  0  0  0  0
 27 28  2  0  0  0  0
 27 48  1  0  0  0  0
 28 49  1  0  0  0  0
 29 50  1  0  0  0  0
 29 51  1  0  0  0  0
 29 52  1  0  0  0  0
M  END
> <PUBCHEM_COMPOUND_CID>
26743391

> <PUBCHEM_CONFORMER_RMSD>
0.8

> <PUBCHEM_CONFORMER_DIVERSEORDER>
1
51
91
75
135
155
77
167
123
39
36
107
118
95
63
23
24
80
127
28
85
137
108
170
84
130
104
79
158
82
125
15
147
50
111
16
55
58
152
163
171
20
98
61
110
168
69
114
121
160
52
150
57
153
68
37
73
40
172
2
34
132
129
90
174
29
38
97
145
47
139
136
81
102
53
78
165
14
126
115
59
60
154
71
142
22
166
131
116
32
18
162
76
41
119
6
151
100
42
96
156
103
35
161
62
10
164
144
109
54
88
101
86
124
7
45
92
19
143
149
27
133
146
120
141
138
48
33
72
56
169
30
94
122
117
49
70
46
159
74
43
113
26
157
140
65
105
8
83
25
67
17
64
148
128
112
9
66
13
87
31
3
5
173
93
4
44
11
134
106
175
89
99
21
12

> <PUBCHEM_MMFF94_PARTIAL_CHARGES>
38
1 1.5
11 0.49
12 -0.18
13 -0.29
14 -0.29
15 -0.33
16 0.11
17 0.18
18 0.18
19 -0.02
2 -0.08
20 -0.02
21 -0.15
22 -0.15
23 -0.15
24 -0.15
25 -0.15
26 0.08
27 -0.15
28 -0.11
29 0.28
3 -0.65
34 0.15
35 0.15
36 0.42
4 -0.65
43 0.15
44 0.15
45 0.15
46 0.15
47 0.15
48 0.15
49 0.15
5 -0.36
6 -0.91
7 0.59
8 -0.71
9 0.32

> <PUBCHEM_EFFECTIVE_ROTOR_COUNT>
6.6

> <PUBCHEM_PHARMACOPHORE_FEATURES>
9
1 3 acceptor
1 4 acceptor
1 5 acceptor
1 6 donor
1 8 acceptor
5 2 20 23 27 28 rings
5 7 8 12 15 16 rings
5 9 10 11 13 14 rings
6 19 21 22 24 25 26 rings

> <PUBCHEM_HEAVY_ATOM_COUNT>
29

> <PUBCHEM_ATOM_DEF_STEREO_COUNT>
2

> <PUBCHEM_ATOM_UDEF_STEREO_COUNT>
0

> <PUBCHEM_BOND_DEF_STEREO_COUNT>
0

> <PUBCHEM_BOND_UDEF_STEREO_COUNT>
0

> <PUBCHEM_ISOTOPIC_ATOM_COUNT>
0

> <PUBCHEM_COMPONENT_COUNT>
1

> <PUBCHEM_CACTVS_TAUTO_COUNT>
1

> <PUBCHEM_CONFORMER_ID>
0198125F00000001

> <PUBCHEM_MMFF94_ENERGY>
77.9164

> <PUBCHEM_FEATURE_SELFOVERLAP>
45.691

> <PUBCHEM_SHAPE_FINGERPRINT>
10 15 18259708887415250841
10319926 262 12397115082699559998
10554248 39 18271795792373808574
10693767 8 11887681645604538372
11070050 100 16370996417577508856
11475781 23 17060333046409695922
117089 54 8141269561610458488
11991303 11 18060415845901976815
12236239 1 18334856125495020314
12342043 65 14925051653927512122
12422481 6 17095516279994780044
12616971 3 18187911907687528626
12895836 83 18343021129308212391
12895837 130 18193282020808316516
13885169 86 18408326605017843245
13911987 19 18131348592990417465
14211702 104 8934728815730982480
14394314 77 18262522609926577501
14565420 104 17821446854743811858
14790565 3 18409448076844805364
15183329 4 17632866330003839656
15188451 53 9367350314569360646
15392192 104 15502957275540347762
1577012 14 18410291440859804868
15840311 113 18260269633444008925
16110190 28 18333167280341148125
18393751 57 18260832571266895319
19302320 297 18186801400928131104
19958102 18 12391511975301764793
20691028 202 18413103961782107841
21033648 29 17987780986879204939
21298829 104 18263082279300165164
21344244 78 15647348403202950999
21521239 73 12031789158262235972
21641784 216 17131844139881752744
21756936 100 18189053251658646058
22122407 14 18187373103370553744
23559900 14 16916770916476932274
249057 3 18342458111268784902
268830 7 17896021287460241334
27425 322 18335139812802375526
2838139 119 18336818719395948917
3472631 163 18412546530834664926
3711267 37 18059582347854156889
397830 11 17458921425984298321
4058900 60 18271815553951009667
4258327 124 18412547639469022237
4340502 62 17167866331151259739
474113 269 7853581175876149169
5104073 3 17531238526483986506
5718773 13 8502368915472247585
5951187 136 18337684113448482316
59682541 35 17822020809363508593
633830 44 18114454652627823642
6898599 12 18127972112328556270
7808743 9 18340762732293112471

> <PUBCHEM_SHAPE_MULTIPOLES>
571.95
21.12
3.44
1.46
11.71
0.42
0.01
19.3
-1.73
-1.43
1.39
-1.51
-0.41
-2.65

> <PUBCHEM_SHAPE_SELFOVERLAP>
1211.731

> <PUBCHEM_SHAPE_VOLUME>
324

> <PUBCHEM_COORDINATE_TYPE>
2
5
10

$$$$
