11887598
  -OEChem-12032416353D

 70 73  0     1  0  0  0  0  0999 V2000
    0.9102    2.4517   -1.2964 S   0  0  0  0  0  0  0  0  0  0  0  0
    0.0862   -1.2288   -1.3525 O   0  0  0  0  0  0  0  0  0  0  0  0
    0.6138    2.9649   -2.6172 O   0  0  0  0  0  0  0  0  0  0  0  0
    2.2099    1.8934   -0.9887 O   0  0  0  0  0  0  0  0  0  0  0  0
    0.4475   -3.7915    1.6941 O   0  0  0  0  0  0  0  0  0  0  0  0
   -3.2109   -1.6275    2.0599 O   0  0  0  0  0  0  0  0  0  0  0  0
   -0.2979    1.3282   -0.8489 N   0  0  1  0  0  0  0  0  0  0  0  0
    1.4182   -1.4474    0.5440 N   0  0  0  0  0  0  0  0  0  0  0  0
   -2.4348   -0.1066    0.4617 N   0  0  0  0  0  0  0  0  0  0  0  0
    1.1623   -4.9356   -0.1645 N   0  0  0  0  0  0  0  0  0  0  0  0
   -6.9052   -0.6394   -0.1331 N   0  0  0  0  0  0  0  0  0  0  0  0
    4.3904   -1.6916    0.3511 C   0  0  0  0  0  0  0  0  0  0  0  0
    5.7739   -1.8646    0.9922 C   0  0  0  0  0  0  0  0  0  0  0  0
    4.5022   -1.6157   -1.1775 C   0  0  0  0  0  0  0  0  0  0  0  0
    3.4569   -2.8266    0.7680 C   0  0  0  0  0  0  0  0  0  0  0  0
    6.7419   -0.7704    0.5480 C   0  0  0  0  0  0  0  0  0  0  0  0
    5.4723   -0.5220   -1.6183 C   0  0  0  0  0  0  0  0  0  0  0  0
    6.8438   -0.6922   -0.9721 C   0  0  0  0  0  0  0  0  0  0  0  0
    2.0362   -2.7095    0.2072 C   0  0  1  0  0  0  0  0  0  0  0  0
   -0.0067    0.4612    0.3263 C   0  0  1  0  0  0  0  0  0  0  0  0
   -1.2237    0.2214    1.2148 C   0  0  0  0  0  0  0  0  0  0  0  0
   -1.7027    1.8023   -0.9467 C   0  0  0  0  0  0  0  0  0  0  0  0
    0.4934   -0.8160   -0.2698 C   0  0  0  0  0  0  0  0  0  0  0  0
   -2.6421    0.6138   -0.7993 C   0  0  0  0  0  0  0  0  0  0  0  0
    1.1244   -3.8384    0.6697 C   0  0  0  0  0  0  0  0  0  0  0  0
   -3.3550   -1.0088    1.0066 C   0  0  0  0  0  0  0  0  0  0  0  0
    0.5827    3.7381   -0.1323 C   0  0  0  0  0  0  0  0  0  0  0  0
   -4.6058   -1.2467    0.2695 C   0  0  0  0  0  0  0  0  0  0  0  0
    1.2227    3.7197    1.0959 C   0  0  0  0  0  0  0  0  0  0  0  0
   -0.3099    4.7433   -0.4661 C   0  0  0  0  0  0  0  0  0  0  0  0
    0.9630    4.7351    2.0163 C   0  0  0  0  0  0  0  0  0  0  0  0
   -0.5696    5.7587    0.4543 C   0  0  0  0  0  0  0  0  0  0  0  0
   -4.6892   -2.2524   -0.6823 C   0  0  0  0  0  0  0  0  0  0  0  0
   -5.7266   -0.4737    0.5081 C   0  0  0  0  0  0  0  0  0  0  0  0
    0.0669    5.7546    1.6955 C   0  0  0  0  0  0  0  0  0  0  0  0
   -5.8848   -2.4534   -1.3631 C   0  0  0  0  0  0  0  0  0  0  0  0
   -6.9538   -1.6276   -1.0545 C   0  0  0  0  0  0  0  0  0  0  0  0
    3.9780   -0.7399    0.7125 H   0  0  0  0  0  0  0  0  0  0  0  0
    5.6853   -1.8457    2.0850 H   0  0  0  0  0  0  0  0  0  0  0  0
    6.1905   -2.8440    0.7240 H   0  0  0  0  0  0  0  0  0  0  0  0
    4.8359   -2.5809   -1.5791 H   0  0  0  0  0  0  0  0  0  0  0  0
    3.5324   -1.3938   -1.6342 H   0  0  0  0  0  0  0  0  0  0  0  0
    3.8827   -3.7926    0.4656 H   0  0  0  0  0  0  0  0  0  0  0  0
    3.4029   -2.8557    1.8650 H   0  0  0  0  0  0  0  0  0  0  0  0
    7.7333   -0.9603    0.9744 H   0  0  0  0  0  0  0  0  0  0  0  0
    6.4047    0.1965    0.9415 H   0  0  0  0  0  0  0  0  0  0  0  0
    5.0620    0.4595   -1.3503 H   0  0  0  0  0  0  0  0  0  0  0  0
    5.5748   -0.5378   -2.7092 H   0  0  0  0  0  0  0  0  0  0  0  0
    7.3158   -1.6059   -1.3535 H   0  0  0  0  0  0  0  0  0  0  0  0
    7.4917    0.1447   -1.2560 H   0  0  0  0  0  0  0  0  0  0  0  0
    2.0716   -2.7708   -0.8871 H   0  0  0  0  0  0  0  0  0  0  0  0
    0.7779    0.9016    0.9487 H   0  0  0  0  0  0  0  0  0  0  0  0
   -1.4543    1.1315    1.7829 H   0  0  0  0  0  0  0  0  0  0  0  0
   -1.0181   -0.5651    1.9498 H   0  0  0  0  0  0  0  0  0  0  0  0
   -1.9207    2.5322   -0.1611 H   0  0  0  0  0  0  0  0  0  0  0  0
   -1.8752    2.2686   -1.9219 H   0  0  0  0  0  0  0  0  0  0  0  0
    1.6173   -1.0564    1.4605 H   0  0  0  0  0  0  0  0  0  0  0  0
   -2.4860   -0.1068   -1.6106 H   0  0  0  0  0  0  0  0  0  0  0  0
   -3.6783    0.9598   -0.8588 H   0  0  0  0  0  0  0  0  0  0  0  0
    0.6061   -5.7603    0.0355 H   0  0  0  0  0  0  0  0  0  0  0  0
    1.7414   -4.9693   -0.9974 H   0  0  0  0  0  0  0  0  0  0  0  0
    1.9266    2.9389    1.3663 H   0  0  0  0  0  0  0  0  0  0  0  0
   -0.8179    4.7644   -1.4253 H   0  0  0  0  0  0  0  0  0  0  0  0
    1.4590    4.7324    2.9826 H   0  0  0  0  0  0  0  0  0  0  0  0
   -1.2681    6.5522    0.2050 H   0  0  0  0  0  0  0  0  0  0  0  0
   -3.8325   -2.8833   -0.9025 H   0  0  0  0  0  0  0  0  0  0  0  0
   -5.7169    0.3268    1.2413 H   0  0  0  0  0  0  0  0  0  0  0  0
   -0.1355    6.5452    2.4121 H   0  0  0  0  0  0  0  0  0  0  0  0
   -5.9770   -3.2319   -2.1118 H   0  0  0  0  0  0  0  0  0  0  0  0
   -7.9082   -1.7434   -1.5573 H   0  0  0  0  0  0  0  0  0  0  0  0
  1  3  2  0  0  0  0
  1  4  2  0  0  0  0
  1  7  1  0  0  0  0
  1 27  1  0  0  0  0
  2 23  2  0  0  0  0
  5 25  2  0  0  0  0
  6 26  2  0  0  0  0
  7 20  1  0  0  0  0
  7 22  1  0  0  0  0
  8 19  1  0  0  0  0
  8 23  1  0  0  0  0
  8 57  1  0  0  0  0
  9 21  1  0  0  0  0
  9 24  1  0  0  0  0
  9 26  1  0  0  0  0
 10 25  1  0  0  0  0
 10 60  1  0  0  0  0
 10 61  1  0  0  0  0
 11 34  1  0  0  0  0
 11 37  2  0  0  0  0
 12 13  1  0  0  0  0
 12 14  1  0  0  0  0
 12 15  1  0  0  0  0
 12 38  1  0  0  0  0
 13 16  1  0  0  0  0
 13 39  1  0  0  0  0
 13 40  1  0  0  0  0
 14 17  1  0  0  0  0
 14 41  1  0  0  0  0
 14 42  1  0  0  0  0
 15 19  1  0  0  0  0
 15 43  1  0  0  0  0
 15 44  1  0  0  0  0
 16 18  1  0  0  0  0
 16 45  1  0  0  0  0
 16 46  1  0  0  0  0
 17 18  1  0  0  0  0
 17 47  1  0  0  0  0
 17 48  1  0  0  0  0
 18 49  1  0  0  0  0
 18 50  1  0  0  0  0
 19 25  1  0  0  0  0
 19 51  1  0  0  0  0
 20 21  1  0  0  0  0
 20 23  1  0  0  0  0
 20 52  1  0  0  0  0
 21 53  1  0  0  0  0
 21 54  1  0  0  0  0
 22 24  1  0  0  0  0
 22 55  1  0  0  0  0
 22 56  1  0  0  0  0
 24 58  1  0  0  0  0
 24 59  1  0  0  0  0
 26 28  1  0  0  0  0
 27 29  2  0  0  0  0
 27 30  1  0  0  0  0
 28 33  1  0  0  0  0
 28 34  2  0  0  0  0
 29 31  1  0  0  0  0
 29 62  1  0  0  0  0
 30 32  2  0  0  0  0
 30 63  1  0  0  0  0
 31 35  2  0  0  0  0
 31 64  1  0  0  0  0
 32 35  1  0  0  0  0
 32 65  1  0  0  0  0
 33 36  2  0  0  0  0
 33 66  1  0  0  0  0
 34 67  1  0  0  0  0
 35 68  1  0  0  0  0
 36 37  1  0  0  0  0
 36 69  1  0  0  0  0
 37 70  1  0  0  0  0
M  END
> <PUBCHEM_COMPOUND_CID>
11887598

> <PUBCHEM_CONFORMER_RMSD>
1.2

> <PUBCHEM_CONFORMER_DIVERSEORDER>
1
200
183
301
247
180
62
97
257
251
163
196
72
79
250
288
128
270
109
118
219
155
245
285
265
237
22
58
156
289
49
308
10
166
232
236
258
256
228
290
208
263
190
77
194
86
110
138
253
261
101
311
116
280
165
24
281
264
131
30
212
233
294
226
305
82
74
43
307
276
26
239
177
259
224
222
204
234
143
195
244
278
211
37
71
6
223
203
173
68
298
65
154
304
248
119
266
260
271
34
279
189
255
39
220
284
201
181
274
241
269
47
302
243
214
207
3
29
150
293
231
174
206
134
114
140
240
309
52
135
291
105
277
87
25
205
41
159
238
312
108
78
54
99
254
297
179
242
267
176
148
92
188
136
310
144
209
275
106
221
235
40
299
215
13
292
175
313
306
35
126
61
20
117
46
197
89
157
283
84
217
246
193
168
123
33
104
5
96
198
45
170
287
187
21
64
15
314
95
98
164
127
172
249
53
199
102
169
130
252
113
186
111
17
210
19
57
55
32
59
286
129
282
184
51
162
100
125
139
216
167
272
31
14
268
107
191
63
112
295
44
158
60
142
146
262
202
69
141
161
2
230
85
7
229
75
73
225
103
67
18
149
121
12
145
38
122
151
16
80
185
48
124
9
132
93
115
133
192
91
147
50
88
213
23
8
182
160
303
4
178
81
83
70
296
137
300
273
153
66
218
76
42
90
152
27
94
28
171
120
227
11
36
56

> <PUBCHEM_MMFF94_PARTIAL_CHARGES>
42
1 1.45
10 -0.8
11 -0.62
19 0.36
2 -0.57
20 0.42
21 0.3
22 0.36
23 0.57
24 0.3
25 0.57
26 0.54
27 -0.01
28 0.09
29 -0.15
3 -0.65
30 -0.15
31 -0.15
32 -0.15
33 -0.15
34 0.16
35 -0.15
36 -0.15
37 0.16
4 -0.65
5 -0.57
57 0.37
6 -0.57
60 0.37
61 0.37
62 0.15
63 0.15
64 0.15
65 0.15
66 0.15
67 0.15
68 0.15
69 0.15
7 -0.85
70 0.15
8 -0.73
9 -0.66

> <PUBCHEM_EFFECTIVE_ROTOR_COUNT>
12.4

> <PUBCHEM_PHARMACOPHORE_FEATURES>
12
1 10 donor
1 11 acceptor
1 2 acceptor
1 3 acceptor
1 4 acceptor
1 5 acceptor
1 6 acceptor
1 8 donor
6 11 28 33 34 36 37 rings
6 12 13 14 16 17 18 rings
6 27 29 30 31 32 35 rings
6 7 9 20 21 22 24 rings

> <PUBCHEM_HEAVY_ATOM_COUNT>
37

> <PUBCHEM_ATOM_DEF_STEREO_COUNT>
2

> <PUBCHEM_ATOM_UDEF_STEREO_COUNT>
0

> <PUBCHEM_BOND_DEF_STEREO_COUNT>
0

> <PUBCHEM_BOND_UDEF_STEREO_COUNT>
0

> <PUBCHEM_ISOTOPIC_ATOM_COUNT>
0

> <PUBCHEM_COMPONENT_COUNT>
1

> <PUBCHEM_CACTVS_TAUTO_COUNT>
4

> <PUBCHEM_CONFORMER_ID>
00B563EE00000001

> <PUBCHEM_MMFF94_ENERGY>
82.0673

> <PUBCHEM_FEATURE_SELFOVERLAP>
60.918

> <PUBCHEM_SHAPE_FINGERPRINT>
10032420 55 17895458285381948803
102385 1 17761776165621348442
10581848 31 18262233314283399197
10930396 42 18264466526084724392
11115154 58 18339358575162918777
11621639 179 17897990358588870181
12788726 201 18046900481542709227
13911987 19 18114763589261467398
14068700 675 18272649065147222075
14394314 77 18411983525342457363
14955137 171 18339920514860132712
15200665 1 17471010281111267185
15439362 3 18120934177201943509
15775530 1 17898818393306790597
15927050 60 17833558169008573662
18681886 176 18342170107119091947
21049683 271 18261396671548820317
21120745 212 18268717108134236425
23559900 14 17969222407723648991
24771293 8 18271807951826747026
283562 15 18263933146501015906
4353968 344 18267024943572362598
463206 1 18336272343721621399
469060 322 18264502689382627088
5171179 24 18338784711391935541
5265222 85 16963254106893703156
5309563 4 18412822478252002640
6004065 56 18409448132790585475
6086070 43 18272370884832953165
6700243 42 17844266037868445894
9555976 147 17688001152191288738
9896288 288 18125443004342148222

> <PUBCHEM_SHAPE_MULTIPOLES>
711.04
13.7
7.87
1.72
3.18
12.14
0.11
-16.55
3.04
-1.46
-2.87
-0.31
0.77
-0.83

> <PUBCHEM_SHAPE_SELFOVERLAP>
1490.938

> <PUBCHEM_SHAPE_VOLUME>
399

> <PUBCHEM_COORDINATE_TYPE>
2
5
10

$$$$
