9424479
  -OEChem-12032416163D

 39 41  0     1  0  0  0  0  0999 V2000
   -6.5438   -1.1424    1.0907 Br  0  0  0  0  0  0  0  0  0  0  0  0
    5.3486   -0.0983    0.2071 S   0  0  0  0  0  0  0  0  0  0  0  0
    0.7496    2.2441   -0.8485 O   0  0  0  0  0  0  0  0  0  0  0  0
   -1.7861   -2.3112   -1.0413 O   0  0  0  0  0  0  0  0  0  0  0  0
    5.2138   -0.5647   -1.1589 O   0  0  0  0  0  0  0  0  0  0  0  0
    6.4055   -0.6027    1.0626 O   0  0  0  0  0  0  0  0  0  0  0  0
   -0.1824   -0.8279   -0.2557 N   0  0  0  0  0  0  0  0  0  0  0  0
    3.8690   -0.2724    1.0308 N   0  0  0  0  0  0  0  0  0  0  0  0
   -1.4851    1.7962   -0.6726 N   0  0  0  0  0  0  0  0  0  0  0  0
    2.6044   -0.1634    0.2640 C   0  0  2  0  0  0  0  0  0  0  0  0
    0.1128    0.3667    0.5268 C   0  0  1  0  0  0  0  0  0  0  0  0
    1.5050    0.3828    1.1700 C   0  0  0  0  0  0  0  0  0  0  0  0
    2.2090   -1.5391   -0.2539 C   0  0  0  0  0  0  0  0  0  0  0  0
    0.9003   -1.4526   -1.0219 C   0  0  0  0  0  0  0  0  0  0  0  0
   -0.1540    1.5337   -0.4068 C   0  0  0  0  0  0  0  0  0  0  0  0
   -1.4916   -1.2562   -0.4779 C   0  0  0  0  0  0  0  0  0  0  0  0
   -2.6117   -0.3623   -0.0800 C   0  0  0  0  0  0  0  0  0  0  0  0
   -2.6099    1.0288   -0.2922 C   0  0  0  0  0  0  0  0  0  0  0  0
    5.4973    1.6733    0.1681 C   0  0  0  0  0  0  0  0  0  0  0  0
   -3.7932   -0.9992    0.3367 C   0  0  0  0  0  0  0  0  0  0  0  0
   -3.8128    1.7389   -0.1451 C   0  0  0  0  0  0  0  0  0  0  0  0
   -4.9657   -0.2693    0.5260 C   0  0  0  0  0  0  0  0  0  0  0  0
   -4.9790    1.0972    0.2720 C   0  0  0  0  0  0  0  0  0  0  0  0
    2.7498    0.5248   -0.5764 H   0  0  0  0  0  0  0  0  0  0  0  0
   -0.6043    0.4392    1.3549 H   0  0  0  0  0  0  0  0  0  0  0  0
    1.7619    1.3951    1.5072 H   0  0  0  0  0  0  0  0  0  0  0  0
    1.4623   -0.2351    2.0784 H   0  0  0  0  0  0  0  0  0  0  0  0
    2.0974   -2.2384    0.5854 H   0  0  0  0  0  0  0  0  0  0  0  0
    2.9850   -1.9557   -0.9050 H   0  0  0  0  0  0  0  0  0  0  0  0
    1.0338   -0.8490   -1.9282 H   0  0  0  0  0  0  0  0  0  0  0  0
    0.5998   -2.4532   -1.3506 H   0  0  0  0  0  0  0  0  0  0  0  0
    3.8269   -0.0479    2.0325 H   0  0  0  0  0  0  0  0  0  0  0  0
   -1.6808    2.6961   -1.1044 H   0  0  0  0  0  0  0  0  0  0  0  0
    6.4454    1.9209   -0.3144 H   0  0  0  0  0  0  0  0  0  0  0  0
    4.6701    2.0913   -0.4079 H   0  0  0  0  0  0  0  0  0  0  0  0
    5.4934    2.0519    1.1920 H   0  0  0  0  0  0  0  0  0  0  0  0
   -3.8036   -2.0761    0.4959 H   0  0  0  0  0  0  0  0  0  0  0  0
   -3.8461    2.8116   -0.3261 H   0  0  0  0  0  0  0  0  0  0  0  0
   -5.8873    1.6811    0.3963 H   0  0  0  0  0  0  0  0  0  0  0  0
  1 22  1  0  0  0  0
  2  5  2  0  0  0  0
  2  6  2  0  0  0  0
  2  8  1  0  0  0  0
  2 19  1  0  0  0  0
  3 15  2  0  0  0  0
  4 16  2  0  0  0  0
  7 11  1  0  0  0  0
  7 14  1  0  0  0  0
  7 16  1  0  0  0  0
  8 10  1  0  0  0  0
  8 32  1  0  0  0  0
  9 15  1  0  0  0  0
  9 18  1  0  0  0  0
  9 33  1  0  0  0  0
 10 12  1  0  0  0  0
 10 13  1  0  0  0  0
 10 24  1  0  0  0  0
 11 12  1  0  0  0  0
 11 15  1  0  0  0  0
 11 25  1  0  0  0  0
 12 26  1  0  0  0  0
 12 27  1  0  0  0  0
 13 14  1  0  0  0  0
 13 28  1  0  0  0  0
 13 29  1  0  0  0  0
 14 30  1  0  0  0  0
 14 31  1  0  0  0  0
 16 17  1  0  0  0  0
 17 18  2  0  0  0  0
 17 20  1  0  0  0  0
 18 21  1  0  0  0  0
 19 34  1  0  0  0  0
 19 35  1  0  0  0  0
 19 36  1  0  0  0  0
 20 22  2  0  0  0  0
 20 37  1  0  0  0  0
 21 23  2  0  0  0  0
 21 38  1  0  0  0  0
 22 23  1  0  0  0  0
 23 39  1  0  0  0  0
M  END
> <PUBCHEM_COMPOUND_CID>
9424479

> <PUBCHEM_CONFORMER_RMSD>
0.6

> <PUBCHEM_CONFORMER_DIVERSEORDER>
1
17
3
12
18
13
4
2
15
8
10
11
5
9
6
7
14
16

> <PUBCHEM_MMFF94_PARTIAL_CHARGES>
26
1 -0.11
10 0.36
11 0.36
14 0.3
15 0.57
16 0.54
17 0.09
18 0.12
19 0.11
2 1.33
20 -0.15
21 -0.15
22 0.11
23 -0.15
3 -0.57
32 0.42
33 0.37
37 0.15
38 0.15
39 0.15
4 -0.57
5 -0.65
6 -0.65
7 -0.66
8 -0.91
9 -0.55

> <PUBCHEM_EFFECTIVE_ROTOR_COUNT>
3

> <PUBCHEM_PHARMACOPHORE_FEATURES>
10
1 1 hydrophobe
1 3 acceptor
1 4 acceptor
1 5 acceptor
1 6 acceptor
1 8 donor
1 9 donor
6 17 18 20 21 22 23 rings
6 7 10 11 12 13 14 rings
7 7 9 11 15 16 17 18 rings

> <PUBCHEM_HEAVY_ATOM_COUNT>
23

> <PUBCHEM_ATOM_DEF_STEREO_COUNT>
2

> <PUBCHEM_ATOM_UDEF_STEREO_COUNT>
0

> <PUBCHEM_BOND_DEF_STEREO_COUNT>
0

> <PUBCHEM_BOND_UDEF_STEREO_COUNT>
0

> <PUBCHEM_ISOTOPIC_ATOM_COUNT>
0

> <PUBCHEM_COMPONENT_COUNT>
1

> <PUBCHEM_CACTVS_TAUTO_COUNT>
3

> <PUBCHEM_CONFORMER_ID>
008FCE5F00000001

> <PUBCHEM_MMFF94_ENERGY>
68.4959

> <PUBCHEM_FEATURE_SELFOVERLAP>
50.788

> <PUBCHEM_SHAPE_FINGERPRINT>
10 15 18411696621378982552
106641 1 18338802316288412707
12011746 2 18341887472769619565
12035758 1 18202280316453155122
12236239 1 17240485792726089902
12390115 104 17916034468706405969
12596602 18 17603301548674689649
13140716 1 18196091268927836931
13533116 47 16200159747003995670
14251764 18 18411142459250466921
14787075 74 17530969076830206632
14790565 3 18411141363612332684
14955137 171 18410581720435491897
15183329 4 10807941465872622554
15196674 1 18339924805606171383
15685185 35 16881907740214375820
1601671 61 18343582936795097112
17349148 13 15140966115222285708
17492 89 17897716566639030962
17804303 29 18343860039147044809
1813 80 17385729071200151734
19141452 34 18059854008181235798
19784866 170 18411136905135319790
21033648 29 17988629775680544113
21267235 1 18334864921614039531
21279426 13 17630334043018842484
22079108 93 17530682143313760936
22182313 1 18269558239129777935
22224240 67 18060415833296330483
23402539 116 18186796972161987218
23557571 272 18339088094553250428
23559900 14 17905883682837965454
23622692 88 18411982494529018927
25147074 1 18196093476567199895
2748010 2 18196369209220030543
2838139 119 14548737283839489635
3009799 131 11025795418482256667
34797466 226 17845665840851496516
34934 24 18261947436927676051
350125 39 18341897437230935121
4325135 7 17748830730489931420
465052 167 18115600369571454651
5104073 3 18267306430573450243
59755656 520 15482671282519846367

> <PUBCHEM_SHAPE_MULTIPOLES>
444.7
14.11
2.02
1.04
5.65
0.39
0.07
-1.11
4.55
-0.7
-0.55
0.27
-0.19
0.47

> <PUBCHEM_SHAPE_SELFOVERLAP>
922.912

> <PUBCHEM_SHAPE_VOLUME>
256.5

> <PUBCHEM_COORDINATE_TYPE>
2
5
10

$$$$
