7135019
  -OEChem-12032416133D

 75 78  0     1  0  0  0  0  0999 V2000
   -0.0976   -2.9346    0.4954 S   0  0  0  0  0  0  0  0  0  0  0  0
    6.9977    0.1008   -0.9433 O   0  0  0  0  0  0  0  0  0  0  0  0
    6.9411   -1.6527    0.6897 O   0  0  0  0  0  0  0  0  0  0  0  0
   -0.8361    2.0311   -1.3322 O   0  0  0  0  0  0  0  0  0  0  0  0
   -3.8114   -0.1228    0.2025 O   0  0  0  0  0  0  0  0  0  0  0  0
   -0.8592   -0.4835    0.1715 N   0  0  0  0  0  0  0  0  0  0  0  0
   -1.0958    3.5963    0.3660 N   0  0  0  0  0  0  0  0  0  0  0  0
   -2.5938   -2.1329    0.4542 N   0  0  0  0  0  0  0  0  0  0  0  0
    2.8514    0.5535    0.3262 C   0  0  2  0  0  0  0  0  0  0  0  0
    3.3434   -0.8210   -0.3095 C   0  0  1  0  0  0  0  0  0  0  0  0
    4.9013   -1.0514   -0.3987 C   0  0  1  0  0  0  0  0  0  0  0  0
    1.3195    0.7631   -0.0779 C   0  0  1  0  0  0  0  0  0  0  0  0
    3.6783    1.7225   -0.2694 C   0  0  0  0  0  0  0  0  0  0  0  0
    5.5764    0.2276   -0.9702 C   0  0  1  0  0  0  0  0  0  0  0  0
    2.5633   -2.0320    0.2803 C   0  0  0  0  0  0  0  0  0  0  0  0
    5.1832    1.4986   -0.2255 C   0  0  0  0  0  0  0  0  0  0  0  0
    2.9860    0.5849    1.8686 C   0  0  0  0  0  0  0  0  0  0  0  0
    0.5231   -0.4969    0.1447 C   0  0  0  0  0  0  0  0  0  0  0  0
    5.5633   -1.4762    0.9308 C   0  0  0  0  0  0  0  0  0  0  0  0
    5.1862   -2.2097   -1.3963 C   0  0  0  0  0  0  0  0  0  0  0  0
    1.1002   -1.7425    0.2847 C   0  0  0  0  0  0  0  0  0  0  0  0
    0.6470    1.9762    0.5786 C   0  0  0  0  0  0  0  0  0  0  0  0
   -0.4970    2.5086   -0.2529 C   0  0  0  0  0  0  0  0  0  0  0  0
   -1.2945   -1.7107    0.3580 C   0  0  0  0  0  0  0  0  0  0  0  0
   -2.2159    4.3105   -0.2028 C   0  0  0  0  0  0  0  0  0  0  0  0
   -3.7477   -1.3357    0.3731 C   0  0  0  0  0  0  0  0  0  0  0  0
   -4.9989   -2.1520    0.5210 C   0  0  0  0  0  0  0  0  0  0  0  0
   -5.4306   -2.7052   -0.8386 C   0  0  0  0  0  0  0  0  0  0  0  0
   -6.1025   -1.3466    1.2098 C   0  0  0  0  0  0  0  0  0  0  0  0
   -6.0869   -1.6537   -1.7318 C   0  0  0  0  0  0  0  0  0  0  0  0
   -6.7677   -0.3196    0.2938 C   0  0  0  0  0  0  0  0  0  0  0  0
   -7.2309   -0.9435   -1.0174 C   0  0  0  0  0  0  0  0  0  0  0  0
   -2.1639    5.7799    0.1947 C   0  0  0  0  0  0  0  0  0  0  0  0
   -3.5308    3.6695    0.2232 C   0  0  0  0  0  0  0  0  0  0  0  0
    3.0230   -0.7544   -1.3639 H   0  0  0  0  0  0  0  0  0  0  0  0
    1.3180    0.9121   -1.1681 H   0  0  0  0  0  0  0  0  0  0  0  0
    3.4604    2.6603    0.2538 H   0  0  0  0  0  0  0  0  0  0  0  0
    3.3878    1.8818   -1.3163 H   0  0  0  0  0  0  0  0  0  0  0  0
    5.2905    0.3401   -2.0246 H   0  0  0  0  0  0  0  0  0  0  0  0
    2.8880   -2.2460    1.3040 H   0  0  0  0  0  0  0  0  0  0  0  0
    2.7507   -2.9289   -0.3195 H   0  0  0  0  0  0  0  0  0  0  0  0
    5.5526    1.4743    0.8056 H   0  0  0  0  0  0  0  0  0  0  0  0
    5.6874    2.3580   -0.6859 H   0  0  0  0  0  0  0  0  0  0  0  0
    2.6132    1.5296    2.2796 H   0  0  0  0  0  0  0  0  0  0  0  0
    4.0176    0.5162    2.2072 H   0  0  0  0  0  0  0  0  0  0  0  0
    2.4220   -0.2152    2.3559 H   0  0  0  0  0  0  0  0  0  0  0  0
    5.4685   -0.7269    1.7125 H   0  0  0  0  0  0  0  0  0  0  0  0
    5.1570   -2.4211    1.3040 H   0  0  0  0  0  0  0  0  0  0  0  0
    4.8562   -3.1768   -1.0029 H   0  0  0  0  0  0  0  0  0  0  0  0
    4.6675   -2.0442   -2.3477 H   0  0  0  0  0  0  0  0  0  0  0  0
    6.2521   -2.3060   -1.6314 H   0  0  0  0  0  0  0  0  0  0  0  0
    1.3513    2.8071    0.6877 H   0  0  0  0  0  0  0  0  0  0  0  0
    0.2688    1.7277    1.5783 H   0  0  0  0  0  0  0  0  0  0  0  0
    7.3727    0.8999   -1.3510 H   0  0  0  0  0  0  0  0  0  0  0  0
    7.3490   -1.9292    1.5278 H   0  0  0  0  0  0  0  0  0  0  0  0
   -0.7745    3.8748    1.2890 H   0  0  0  0  0  0  0  0  0  0  0  0
   -2.7054   -3.1340    0.5924 H   0  0  0  0  0  0  0  0  0  0  0  0
   -2.1408    4.2452   -1.2951 H   0  0  0  0  0  0  0  0  0  0  0  0
   -4.7674   -3.0018    1.1776 H   0  0  0  0  0  0  0  0  0  0  0  0
   -4.5784   -3.1464   -1.3695 H   0  0  0  0  0  0  0  0  0  0  0  0
   -6.1497   -3.5180   -0.6731 H   0  0  0  0  0  0  0  0  0  0  0  0
   -6.8738   -2.0442    1.5616 H   0  0  0  0  0  0  0  0  0  0  0  0
   -5.7126   -0.8390    2.1005 H   0  0  0  0  0  0  0  0  0  0  0  0
   -5.3392   -0.9179   -2.0511 H   0  0  0  0  0  0  0  0  0  0  0  0
   -6.4652   -2.1332   -2.6419 H   0  0  0  0  0  0  0  0  0  0  0  0
   -7.6338    0.1099    0.8116 H   0  0  0  0  0  0  0  0  0  0  0  0
   -6.0976    0.5203    0.0856 H   0  0  0  0  0  0  0  0  0  0  0  0
   -8.0381   -1.6590   -0.8176 H   0  0  0  0  0  0  0  0  0  0  0  0
   -7.6476   -0.1668   -1.6684 H   0  0  0  0  0  0  0  0  0  0  0  0
   -2.9877    6.3387   -0.2614 H   0  0  0  0  0  0  0  0  0  0  0  0
   -1.2231    6.2370   -0.1312 H   0  0  0  0  0  0  0  0  0  0  0  0
   -2.2299    5.9012    1.2818 H   0  0  0  0  0  0  0  0  0  0  0  0
   -4.3845    4.2001   -0.2111 H   0  0  0  0  0  0  0  0  0  0  0  0
   -3.5807    2.6265   -0.1058 H   0  0  0  0  0  0  0  0  0  0  0  0
   -3.6417    3.6766    1.3133 H   0  0  0  0  0  0  0  0  0  0  0  0
  1 21  1  0  0  0  0
  1 24  1  0  0  0  0
  2 14  1  0  0  0  0
  2 54  1  0  0  0  0
  3 19  1  0  0  0  0
  3 55  1  0  0  0  0
  4 23  2  0  0  0  0
  5 26  2  0  0  0  0
  6 18  1  0  0  0  0
  6 24  2  0  0  0  0
  7 23  1  0  0  0  0
  7 25  1  0  0  0  0
  7 56  1  0  0  0  0
  8 24  1  0  0  0  0
  8 26  1  0  0  0  0
  8 57  1  0  0  0  0
  9 10  1  0  0  0  0
  9 12  1  0  0  0  0
  9 13  1  0  0  0  0
  9 17  1  0  0  0  0
 10 11  1  0  0  0  0
 10 15  1  0  0  0  0
 10 35  1  0  0  0  0
 11 14  1  0  0  0  0
 11 19  1  0  0  0  0
 11 20  1  0  0  0  0
 12 18  1  0  0  0  0
 12 22  1  0  0  0  0
 12 36  1  0  0  0  0
 13 16  1  0  0  0  0
 13 37  1  0  0  0  0
 13 38  1  0  0  0  0
 14 16  1  0  0  0  0
 14 39  1  0  0  0  0
 15 21  1  0  0  0  0
 15 40  1  0  0  0  0
 15 41  1  0  0  0  0
 16 42  1  0  0  0  0
 16 43  1  0  0  0  0
 17 44  1  0  0  0  0
 17 45  1  0  0  0  0
 17 46  1  0  0  0  0
 18 21  2  0  0  0  0
 19 47  1  0  0  0  0
 19 48  1  0  0  0  0
 20 49  1  0  0  0  0
 20 50  1  0  0  0  0
 20 51  1  0  0  0  0
 22 23  1  0  0  0  0
 22 52  1  0  0  0  0
 22 53  1  0  0  0  0
 25 33  1  0  0  0  0
 25 34  1  0  0  0  0
 25 58  1  0  0  0  0
 26 27  1  0  0  0  0
 27 28  1  0  0  0  0
 27 29  1  0  0  0  0
 27 59  1  0  0  0  0
 28 30  1  0  0  0  0
 28 60  1  0  0  0  0
 28 61  1  0  0  0  0
 29 31  1  0  0  0  0
 29 62  1  0  0  0  0
 29 63  1  0  0  0  0
 30 32  1  0  0  0  0
 30 64  1  0  0  0  0
 30 65  1  0  0  0  0
 31 32  1  0  0  0  0
 31 66  1  0  0  0  0
 31 67  1  0  0  0  0
 32 68  1  0  0  0  0
 32 69  1  0  0  0  0
 33 70  1  0  0  0  0
 33 71  1  0  0  0  0
 33 72  1  0  0  0  0
 34 73  1  0  0  0  0
 34 74  1  0  0  0  0
 34 75  1  0  0  0  0
M  END
> <PUBCHEM_COMPOUND_CID>
7135019

> <PUBCHEM_CONFORMER_RMSD>
1

> <PUBCHEM_CONFORMER_DIVERSEORDER>
1
13
35
34
29
10
23
18
22
30
14
25
33
32
17
28
6
21
15
24
20
8
4
12
11
3
37
36
9
5
31
19
26
7
2
27
16

> <PUBCHEM_MMFF94_PARTIAL_CHARGES>
24
1 -0.08
12 0.18
14 0.28
15 0.18
18 0.05
19 0.28
2 -0.68
21 -0.14
22 0.06
23 0.57
24 0.44
25 0.3
26 0.57
27 0.06
3 -0.68
4 -0.57
5 -0.57
54 0.4
55 0.4
56 0.37
57 0.37
6 -0.57
7 -0.73
8 -0.49

> <PUBCHEM_EFFECTIVE_ROTOR_COUNT>
10.4

> <PUBCHEM_PHARMACOPHORE_FEATURES>
13
1 2 acceptor
1 2 donor
1 3 acceptor
1 3 donor
1 4 acceptor
1 5 acceptor
1 7 donor
1 8 donor
3 25 33 34 hydrophobe
5 1 6 18 21 24 rings
6 27 28 29 30 31 32 rings
6 9 10 11 13 14 16 rings
6 9 10 12 15 18 21 rings

> <PUBCHEM_HEAVY_ATOM_COUNT>
34

> <PUBCHEM_ATOM_DEF_STEREO_COUNT>
5

> <PUBCHEM_ATOM_UDEF_STEREO_COUNT>
0

> <PUBCHEM_BOND_DEF_STEREO_COUNT>
0

> <PUBCHEM_BOND_UDEF_STEREO_COUNT>
0

> <PUBCHEM_ISOTOPIC_ATOM_COUNT>
0

> <PUBCHEM_COMPONENT_COUNT>
1

> <PUBCHEM_CACTVS_TAUTO_COUNT>
6

> <PUBCHEM_CONFORMER_ID>
006CDF2B00000001

> <PUBCHEM_MMFF94_ENERGY>
88.298

> <PUBCHEM_FEATURE_SELFOVERLAP>
66.117

> <PUBCHEM_SHAPE_FINGERPRINT>
10050765 1 18121782734270532714
10462674 296 18127399271814824343
10670039 82 18408323267748860152
10675989 125 18046634670534201828
10815517 723 18341623573142261497
11646440 116 18335148630548867819
12058002 1 17315385585736321643
12107698 1 18408602561283033262
12166972 35 17894914070144009727
12440605 4 18048324349206583947
12516196 113 18338236080347561703
12645989 146 18269833267925482383
12677640 9 18339364041707857628
12788726 201 18333447646904742056
12977781 61 17557718957846564030
13383665 225 18263948621600987188
13590594 115 18411141363976063513
13782708 43 17847063285116410263
14028597 1 17749372781306590624
14068700 675 18408885143918565125
14294032 229 18268722605687140001
14347332 77 18411418388902197726
14681490 219 18410853270211909575
14725015 67 18411129226303702098
14955137 171 18191033498254969139
15081414 286 18194125342090004721
15082195 135 17968106360778304596
15183329 4 18343586269479287447
15198563 99 18410297977922226213
15276724 80 18413110567335982980
15483637 11 18265897943436064249
15927050 60 17906454320719120811
15968369 153 18129080321175799061
16087824 20 18338235944027485785
16090146 7 17023485091711426770
18365409 1 18193559961433696357
18608769 82 18341611499662176992
18681886 176 18269267032116701843
21236236 1 18411140199623181681
21285901 2 18129958818461220870
21360443 126 18190175681501172861
21641784 216 18041857146017877820
21792965 326 16660940984091671516
21792965 96 18054257369985129732
21796203 349 17829372182577525841
221357 26 18413392042555234542
22311459 1 18409730669093794482
23559900 14 18194395813655876291
23576562 1 18195238052674729359
244849 19 17631432515681355832
24771293 8 18056470879743384832
24771750 20 17179132206520751917
249057 3 18342735265582502271
283562 15 18334859385427588363
3103668 31 18262796260306051901
350125 39 18410296883005524376
46939830 39 17895194458953496109
5171179 24 18201709700052325649
59520647 119 18264489474248902253
5969126 39 18412260618940511413
59755656 215 18335137587856127255
653340 110 18339355258720432689

> <PUBCHEM_SHAPE_MULTIPOLES>
665.13
17.42
5.22
1.16
4.57
9.18
0.08
-11.07
3.37
5.59
-0.07
0.08
-0.36
-0.4

> <PUBCHEM_SHAPE_SELFOVERLAP>
1380.028

> <PUBCHEM_SHAPE_VOLUME>
382.4

> <PUBCHEM_COORDINATE_TYPE>
2
5
10

$$$$
