28962614
  -OEChem-12032416413D

 76 77  0     1  0  0  0  0  0999 V2000
    1.4017    1.9749   -0.4888 O   0  0  0  0  0  0  0  0  0  0  0  0
    5.4180   -1.3842   -0.9505 O   0  0  0  0  0  0  0  0  0  0  0  0
   -4.8314    0.6622    2.1423 O   0  0  0  0  0  0  0  0  0  0  0  0
   -3.8006    0.5699    0.0620 N   0  0  0  0  0  0  0  0  0  0  0  0
    5.7769    0.4450    0.4205 N   0  0  0  0  0  0  0  0  0  0  0  0
   -0.0385   -1.5234    0.0240 C   0  0  1  0  0  0  0  0  0  0  0  0
    0.0193    0.0402    0.0506 C   0  0  2  0  0  0  0  0  0  0  0  0
   -1.3571    0.6580   -0.3873 C   0  0  1  0  0  0  0  0  0  0  0  0
    1.2645    0.5715   -0.7162 C   0  0  2  0  0  0  0  0  0  0  0  0
    1.2911   -2.0982    0.5672 C   0  0  0  0  0  0  0  0  0  0  0  0
    2.5812   -0.0844   -0.2390 C   0  0  1  0  0  0  0  0  0  0  0  0
   -1.1743   -2.0020    0.9576 C   0  0  0  0  0  0  0  0  0  0  0  0
   -2.5026    0.1117    0.5107 C   0  0  2  0  0  0  0  0  0  0  0  0
    2.5092   -1.6110   -0.2062 C   0  0  0  0  0  0  0  0  0  0  0  0
   -2.5312   -1.4140    0.5979 C   0  0  0  0  0  0  0  0  0  0  0  0
   -0.2783   -2.0849   -1.4004 C   0  0  0  0  0  0  0  0  0  0  0  0
    3.7773    0.3539   -1.0929 C   0  0  2  0  0  0  0  0  0  0  0  0
   -1.3798    2.1956   -0.3562 C   0  0  0  0  0  0  0  0  0  0  0  0
    3.5430   -0.0571   -2.5475 C   0  0  0  0  0  0  0  0  0  0  0  0
    5.0623   -0.2721   -0.5449 C   0  0  0  0  0  0  0  0  0  0  0  0
   -4.8577    0.8065    0.9218 C   0  0  0  0  0  0  0  0  0  0  0  0
   -6.1134    1.2724    0.2029 C   0  0  0  0  0  0  0  0  0  0  0  0
   -7.0334    0.1327   -0.2955 C   0  0  0  0  0  0  0  0  0  0  0  0
    6.9942   -0.1334    0.9793 C   0  0  0  0  0  0  0  0  0  0  0  0
    5.4456    1.7754    0.9266 C   0  0  0  0  0  0  0  0  0  0  0  0
   -8.2679    0.6945   -1.0206 C   0  0  0  0  0  0  0  0  0  0  0  0
   -6.2316   -0.7262   -1.2931 C   0  0  0  0  0  0  0  0  0  0  0  0
   -7.4916   -0.7686    0.8626 C   0  0  0  0  0  0  0  0  0  0  0  0
    6.6984   -0.9670    2.2089 C   0  0  0  0  0  0  0  0  0  0  0  0
    6.1067    2.8621    0.1041 C   0  0  0  0  0  0  0  0  0  0  0  0
    0.1561    0.3468    1.1001 H   0  0  0  0  0  0  0  0  0  0  0  0
   -1.5600    0.3707   -1.4268 H   0  0  0  0  0  0  0  0  0  0  0  0
    1.0849    0.4315   -1.7835 H   0  0  0  0  0  0  0  0  0  0  0  0
    1.2676   -3.1954    0.5466 H   0  0  0  0  0  0  0  0  0  0  0  0
    1.4114   -1.8154    1.6219 H   0  0  0  0  0  0  0  0  0  0  0  0
    2.7656    0.2505    0.7918 H   0  0  0  0  0  0  0  0  0  0  0  0
   -0.9409   -1.7246    1.9945 H   0  0  0  0  0  0  0  0  0  0  0  0
   -1.2434   -3.0971    0.9418 H   0  0  0  0  0  0  0  0  0  0  0  0
   -2.3495    0.4996    1.5274 H   0  0  0  0  0  0  0  0  0  0  0  0
    3.3847   -2.0286    0.3034 H   0  0  0  0  0  0  0  0  0  0  0  0
    2.4850   -2.0644   -1.1985 H   0  0  0  0  0  0  0  0  0  0  0  0
   -2.8863   -1.8403   -0.3484 H   0  0  0  0  0  0  0  0  0  0  0  0
   -3.2648   -1.7293    1.3513 H   0  0  0  0  0  0  0  0  0  0  0  0
   -1.2407   -1.7812   -1.8201 H   0  0  0  0  0  0  0  0  0  0  0  0
   -0.2675   -3.1811   -1.3889 H   0  0  0  0  0  0  0  0  0  0  0  0
    0.4858   -1.7605   -2.1124 H   0  0  0  0  0  0  0  0  0  0  0  0
    3.8710    1.4428   -1.0942 H   0  0  0  0  0  0  0  0  0  0  0  0
   -1.0243    2.5790    0.6057 H   0  0  0  0  0  0  0  0  0  0  0  0
   -2.3864    2.5937   -0.5197 H   0  0  0  0  0  0  0  0  0  0  0  0
   -0.7670    2.6156   -1.1587 H   0  0  0  0  0  0  0  0  0  0  0  0
   -3.9387    0.6853   -0.9374 H   0  0  0  0  0  0  0  0  0  0  0  0
    1.5145    2.1166    0.4666 H   0  0  0  0  0  0  0  0  0  0  0  0
    3.4111   -1.1290   -2.7070 H   0  0  0  0  0  0  0  0  0  0  0  0
    4.4302    0.2136   -3.1355 H   0  0  0  0  0  0  0  0  0  0  0  0
    2.7113    0.4766   -3.0133 H   0  0  0  0  0  0  0  0  0  0  0  0
   -6.6650    1.9169    0.8998 H   0  0  0  0  0  0  0  0  0  0  0  0
   -5.8214    1.9186   -0.6355 H   0  0  0  0  0  0  0  0  0  0  0  0
    7.4692   -0.7705    0.2246 H   0  0  0  0  0  0  0  0  0  0  0  0
    7.7069    0.6640    1.2167 H   0  0  0  0  0  0  0  0  0  0  0  0
    4.3628    1.9212    0.9196 H   0  0  0  0  0  0  0  0  0  0  0  0
    5.7588    1.8488    1.9744 H   0  0  0  0  0  0  0  0  0  0  0  0
   -8.9128   -0.1080   -1.3956 H   0  0  0  0  0  0  0  0  0  0  0  0
   -7.9748    1.3151   -1.8748 H   0  0  0  0  0  0  0  0  0  0  0  0
   -8.8664    1.3170   -0.3461 H   0  0  0  0  0  0  0  0  0  0  0  0
   -5.4310   -1.2931   -0.8086 H   0  0  0  0  0  0  0  0  0  0  0  0
   -5.7976   -0.1155   -2.0926 H   0  0  0  0  0  0  0  0  0  0  0  0
   -6.8836   -1.4666   -1.7728 H   0  0  0  0  0  0  0  0  0  0  0  0
   -8.0236   -0.1865    1.6233 H   0  0  0  0  0  0  0  0  0  0  0  0
   -8.1713   -1.5517    0.5075 H   0  0  0  0  0  0  0  0  0  0  0  0
   -6.6486   -1.2686    1.3512 H   0  0  0  0  0  0  0  0  0  0  0  0
    6.2407   -0.3620    2.9983 H   0  0  0  0  0  0  0  0  0  0  0  0
    6.0082   -1.7845    1.9756 H   0  0  0  0  0  0  0  0  0  0  0  0
    7.6209   -1.4023    2.6054 H   0  0  0  0  0  0  0  0  0  0  0  0
    7.1978    2.7806    0.1410 H   0  0  0  0  0  0  0  0  0  0  0  0
    5.8084    2.8075   -0.9477 H   0  0  0  0  0  0  0  0  0  0  0  0
    5.8290    3.8495    0.4859 H   0  0  0  0  0  0  0  0  0  0  0  0
  1  9  1  0  0  0  0
  1 52  1  0  0  0  0
  2 20  2  0  0  0  0
  3 21  2  0  0  0  0
  4 13  1  0  0  0  0
  4 21  1  0  0  0  0
  4 51  1  0  0  0  0
  5 20  1  0  0  0  0
  5 24  1  0  0  0  0
  5 25  1  0  0  0  0
  6  7  1  0  0  0  0
  6 10  1  0  0  0  0
  6 12  1  0  0  0  0
  6 16  1  0  0  0  0
  7  8  1  0  0  0  0
  7  9  1  0  0  0  0
  7 31  1  0  0  0  0
  8 13  1  0  0  0  0
  8 18  1  0  0  0  0
  8 32  1  0  0  0  0
  9 11  1  0  0  0  0
  9 33  1  0  0  0  0
 10 14  1  0  0  0  0
 10 34  1  0  0  0  0
 10 35  1  0  0  0  0
 11 14  1  0  0  0  0
 11 17  1  0  0  0  0
 11 36  1  0  0  0  0
 12 15  1  0  0  0  0
 12 37  1  0  0  0  0
 12 38  1  0  0  0  0
 13 15  1  0  0  0  0
 13 39  1  0  0  0  0
 14 40  1  0  0  0  0
 14 41  1  0  0  0  0
 15 42  1  0  0  0  0
 15 43  1  0  0  0  0
 16 44  1  0  0  0  0
 16 45  1  0  0  0  0
 16 46  1  0  0  0  0
 17 19  1  0  0  0  0
 17 20  1  0  0  0  0
 17 47  1  0  0  0  0
 18 48  1  0  0  0  0
 18 49  1  0  0  0  0
 18 50  1  0  0  0  0
 19 53  1  0  0  0  0
 19 54  1  0  0  0  0
 19 55  1  0  0  0  0
 21 22  1  0  0  0  0
 22 23  1  0  0  0  0
 22 56  1  0  0  0  0
 22 57  1  0  0  0  0
 23 26  1  0  0  0  0
 23 27  1  0  0  0  0
 23 28  1  0  0  0  0
 24 29  1  0  0  0  0
 24 58  1  0  0  0  0
 24 59  1  0  0  0  0
 25 30  1  0  0  0  0
 25 60  1  0  0  0  0
 25 61  1  0  0  0  0
 26 62  1  0  0  0  0
 26 63  1  0  0  0  0
 26 64  1  0  0  0  0
 27 65  1  0  0  0  0
 27 66  1  0  0  0  0
 27 67  1  0  0  0  0
 28 68  1  0  0  0  0
 28 69  1  0  0  0  0
 28 70  1  0  0  0  0
 29 71  1  0  0  0  0
 29 72  1  0  0  0  0
 29 73  1  0  0  0  0
 30 74  1  0  0  0  0
 30 75  1  0  0  0  0
 30 76  1  0  0  0  0
M  END
> <PUBCHEM_COMPOUND_CID>
28962614

> <PUBCHEM_CONFORMER_RMSD>
1

> <PUBCHEM_CONFORMER_DIVERSEORDER>
1
84
86
13
80
90
103
68
74
95
33
72
96
99
78
48
32
69
60
76
88
44
11
23
61
97
73
19
82
31
102
40
62
106
59
29
91
64
77
39
94
51
93
25
3
104
26
36
55
85
67
17
35
98
83
22
79
100
6
65
92
89
8
2
18
66
12
20
58
71
57
54
75
30
63
15
43
4
24
7
16
81
27
5
9
70
38
14
37
105
34
46
49
42
52
41
28
87
21
56
45
50
10
53
101
47

> <PUBCHEM_MMFF94_PARTIAL_CHARGES>
15
1 -0.68
13 0.3
17 0.06
2 -0.57
20 0.57
21 0.57
22 0.06
24 0.3
25 0.3
3 -0.57
4 -0.73
5 -0.66
51 0.37
52 0.4
9 0.28

> <PUBCHEM_EFFECTIVE_ROTOR_COUNT>
10.6

> <PUBCHEM_PHARMACOPHORE_FEATURES>
9
1 1 acceptor
1 1 donor
1 19 hydrophobe
1 2 acceptor
1 3 acceptor
1 4 donor
4 23 26 27 28 hydrophobe
6 6 7 8 12 13 15 rings
6 6 7 9 10 11 14 rings

> <PUBCHEM_HEAVY_ATOM_COUNT>
30

> <PUBCHEM_ATOM_DEF_STEREO_COUNT>
7

> <PUBCHEM_ATOM_UDEF_STEREO_COUNT>
0

> <PUBCHEM_BOND_DEF_STEREO_COUNT>
0

> <PUBCHEM_BOND_UDEF_STEREO_COUNT>
0

> <PUBCHEM_ISOTOPIC_ATOM_COUNT>
0

> <PUBCHEM_COMPONENT_COUNT>
1

> <PUBCHEM_CACTVS_TAUTO_COUNT>
2

> <PUBCHEM_CONFORMER_ID>
01B9EF3600000001

> <PUBCHEM_MMFF94_ENERGY>
85.3109

> <PUBCHEM_FEATURE_SELFOVERLAP>
45.685

> <PUBCHEM_SHAPE_FINGERPRINT>
10 15 18186522133215925032
11135926 11 18334572422538214975
11331351 85 10665227060159637787
11719270 70 17822293465696499442
12236239 1 17917996049353488213
12838862 33 18262504957662867549
12925494 130 18054504992035486088
13140716 1 18191033489343209408
13533116 47 18261393283210228234
13914758 101 15357693055322696077
14347424 109 16443066123481005916
14849402 71 17917151714365248793
15131766 46 15649333175851207694
15142383 8 17022621987957578548
15183329 4 18114472205425335463
15301273 46 14779265289359652570
15840311 113 18113615707933185700
16994733 274 16558759979418606795
18335252 98 15841550786577289343
18681886 176 17917702531520575147
20105231 36 10447928403776783885
20157964 124 17775289352836936510
21150785 3 16917347035269041703
21403212 168 18114455695639926754
21521721 280 17917998299557655355
21792934 111 18113889447157110804
21859007 373 17749094578789640821
22224240 67 18410008836206585411
23559900 14 18270397321553564897
23569917 315 18335149678390130067
23569943 247 17769111054787534078
24771293 8 18343025496979508481
2838139 119 18407758136373993789
3178227 256 18337681888254210089
335352 9 18334020488621662990
3472631 163 18201440315782196190
34797466 226 17275394200249636205
3680242 22 18260554437516291416
4093350 32 17060626568516444788
4098825 35 14764351518341628931
4340502 62 18040154006811988154
5104073 3 18261683683033430754
59755656 520 16153427277255811771
6004065 56 18130786810788494537
6371009 1 18408045104508946101

> <PUBCHEM_SHAPE_MULTIPOLES>
589.82
21.41
2.22
1.58
15.79
0.34
0.12
5.26
-3.68
-1.89
-0.13
-1.02
-0.27
-0.06

> <PUBCHEM_SHAPE_SELFOVERLAP>
1183.336

> <PUBCHEM_SHAPE_VOLUME>
345

> <PUBCHEM_COORDINATE_TYPE>
2
5
10

$$$$
