11886125
  -OEChem-12032416123D

 54 59  0     1  0  0  0  0  0999 V2000
   -2.8636   -2.9413   -0.6780 S   0  0  0  0  0  0  0  0  0  0  0  0
    1.5780   -2.3403    0.9118 O   0  0  0  0  0  0  0  0  0  0  0  0
   -0.4276   -0.1465    1.9398 O   0  0  0  0  0  0  0  0  0  0  0  0
   -3.6520   -3.4856    0.4110 O   0  0  0  0  0  0  0  0  0  0  0  0
   -3.0047   -3.4755   -2.0190 O   0  0  0  0  0  0  0  0  0  0  0  0
    2.0929    1.2330    0.3590 N   0  0  0  0  0  0  0  0  0  0  0  0
   -1.2202   -2.9613   -0.2511 N   0  0  0  0  0  0  0  0  0  0  0  0
    1.1678    2.1889    0.2268 N   0  0  0  0  0  0  0  0  0  0  0  0
    2.9951    2.7063   -0.9409 N   0  0  0  0  0  0  0  0  0  0  0  0
    1.7261    3.0909   -0.5712 N   0  0  0  0  0  0  0  0  0  0  0  0
   -0.3215   -0.9189    0.7335 C   0  0  1  0  0  0  0  0  0  0  0  0
    1.1522   -1.0617    0.4066 C   0  0  1  0  0  0  0  0  0  0  0  0
   -0.7896   -2.3362    0.9760 C   0  0  2  0  0  0  0  0  0  0  0  0
    1.8290    0.0513    1.1841 C   0  0  2  0  0  0  0  0  0  0  0  0
    0.4604   -3.0009    1.5221 C   0  0  0  0  0  0  0  0  0  0  0  0
    0.8777    0.2798    2.3536 C   0  0  0  0  0  0  0  0  0  0  0  0
    3.2009    1.5511   -0.3515 C   0  0  0  0  0  0  0  0  0  0  0  0
   -3.1940   -1.2075   -0.7766 C   0  0  0  0  0  0  0  0  0  0  0  0
    4.3879    0.7387   -0.4281 C   0  0  0  0  0  0  0  0  0  0  0  0
   -3.6241   -0.5362    0.3551 C   0  0  0  0  0  0  0  0  0  0  0  0
   -3.0168   -0.5555   -1.9810 C   0  0  0  0  0  0  0  0  0  0  0  0
    5.4176    0.9165    0.4976 C   0  0  0  0  0  0  0  0  0  0  0  0
    4.5119   -0.2277   -1.4280 C   0  0  0  0  0  0  0  0  0  0  0  0
   -3.8915    0.8411    0.2930 C   0  0  0  0  0  0  0  0  0  0  0  0
   -3.2773    0.8129   -2.0608 C   0  0  0  0  0  0  0  0  0  0  0  0
   -3.7153    1.5258   -0.9328 C   0  0  0  0  0  0  0  0  0  0  0  0
    6.5679    0.1309    0.4234 C   0  0  0  0  0  0  0  0  0  0  0  0
    5.6621   -1.0134   -1.5020 C   0  0  0  0  0  0  0  0  0  0  0  0
   -4.3292    1.5541    1.4212 C   0  0  0  0  0  0  0  0  0  0  0  0
   -3.9827    2.9032   -0.9948 C   0  0  0  0  0  0  0  0  0  0  0  0
    6.6900   -0.8340   -0.5763 C   0  0  0  0  0  0  0  0  0  0  0  0
   -4.5901    2.9223    1.3415 C   0  0  0  0  0  0  0  0  0  0  0  0
   -4.4173    3.5955    0.1359 C   0  0  0  0  0  0  0  0  0  0  0  0
   -0.8331   -0.3629   -0.0512 H   0  0  0  0  0  0  0  0  0  0  0  0
    1.3532   -1.0548   -0.6695 H   0  0  0  0  0  0  0  0  0  0  0  0
   -1.5789   -2.4023    1.7319 H   0  0  0  0  0  0  0  0  0  0  0  0
    2.8023   -0.2543    1.5848 H   0  0  0  0  0  0  0  0  0  0  0  0
    0.5449   -2.8544    2.6046 H   0  0  0  0  0  0  0  0  0  0  0  0
    0.5164   -4.0735    1.3129 H   0  0  0  0  0  0  0  0  0  0  0  0
    1.1619   -0.3514    3.2033 H   0  0  0  0  0  0  0  0  0  0  0  0
    0.8312    1.3136    2.7084 H   0  0  0  0  0  0  0  0  0  0  0  0
   -0.5188   -3.0639   -0.9950 H   0  0  0  0  0  0  0  0  0  0  0  0
   -3.7555   -1.0631    1.2973 H   0  0  0  0  0  0  0  0  0  0  0  0
   -2.6711   -1.0745   -2.8696 H   0  0  0  0  0  0  0  0  0  0  0  0
    5.3376    1.6642    1.2832 H   0  0  0  0  0  0  0  0  0  0  0  0
    3.7194   -0.3800   -2.1569 H   0  0  0  0  0  0  0  0  0  0  0  0
   -3.1329    1.3193   -3.0128 H   0  0  0  0  0  0  0  0  0  0  0  0
    7.3682    0.2703    1.1442 H   0  0  0  0  0  0  0  0  0  0  0  0
    5.7572   -1.7650   -2.2801 H   0  0  0  0  0  0  0  0  0  0  0  0
   -4.4705    1.0484    2.3742 H   0  0  0  0  0  0  0  0  0  0  0  0
   -3.8542    3.4500   -1.9267 H   0  0  0  0  0  0  0  0  0  0  0  0
    7.5854   -1.4458   -0.6339 H   0  0  0  0  0  0  0  0  0  0  0  0
   -4.9280    3.4619    2.2215 H   0  0  0  0  0  0  0  0  0  0  0  0
   -4.6204    4.6607    0.0746 H   0  0  0  0  0  0  0  0  0  0  0  0
  1  4  2  0  0  0  0
  1  5  2  0  0  0  0
  1  7  1  0  0  0  0
  1 18  1  0  0  0  0
  2 12  1  0  0  0  0
  2 15  1  0  0  0  0
  3 11  1  0  0  0  0
  3 16  1  0  0  0  0
  6  8  1  0  0  0  0
  6 14  1  0  0  0  0
  6 17  1  0  0  0  0
  7 13  1  0  0  0  0
  7 42  1  0  0  0  0
  8 10  2  0  0  0  0
  9 10  1  0  0  0  0
  9 17  2  0  0  0  0
 11 12  1  0  0  0  0
 11 13  1  0  0  0  0
 11 34  1  0  0  0  0
 12 14  1  0  0  0  0
 12 35  1  0  0  0  0
 13 15  1  0  0  0  0
 13 36  1  0  0  0  0
 14 16  1  0  0  0  0
 14 37  1  0  0  0  0
 15 38  1  0  0  0  0
 15 39  1  0  0  0  0
 16 40  1  0  0  0  0
 16 41  1  0  0  0  0
 17 19  1  0  0  0  0
 18 20  2  0  0  0  0
 18 21  1  0  0  0  0
 19 22  2  0  0  0  0
 19 23  1  0  0  0  0
 20 24  1  0  0  0  0
 20 43  1  0  0  0  0
 21 25  2  0  0  0  0
 21 44  1  0  0  0  0
 22 27  1  0  0  0  0
 22 45  1  0  0  0  0
 23 28  2  0  0  0  0
 23 46  1  0  0  0  0
 24 26  1  0  0  0  0
 24 29  2  0  0  0  0
 25 26  1  0  0  0  0
 25 47  1  0  0  0  0
 26 30  2  0  0  0  0
 27 31  2  0  0  0  0
 27 48  1  0  0  0  0
 28 31  1  0  0  0  0
 28 49  1  0  0  0  0
 29 32  1  0  0  0  0
 29 50  1  0  0  0  0
 30 33  1  0  0  0  0
 30 51  1  0  0  0  0
 31 52  1  0  0  0  0
 32 33  2  0  0  0  0
 32 53  1  0  0  0  0
 33 54  1  0  0  0  0
M  END
> <PUBCHEM_COMPOUND_CID>
11886125

> <PUBCHEM_CONFORMER_RMSD>
0.8

> <PUBCHEM_CONFORMER_DIVERSEORDER>
1
133
215
193
206
159
116
18
120
163
211
191
110
165
67
184
129
93
149
80
196
42
157
134
14
128
136
15
208
189
111
203
183
20
72
180
147
204
11
112
61
185
52
73
212
179
89
131
33
79
148
71
138
186
10
104
172
117
175
194
54
121
75
130
119
195
38
44
70
201
187
109
144
166
145
207
146
17
56
83
25
209
202
210
154
28
125
5
214
92
51
114
23
98
137
107
49
140
86
66
188
173
59
177
168
85
161
6
30
176
19
7
36
182
151
199
29
216
217
99
139
68
95
150
162
2
77
91
141
41
96
124
178
88
58
16
47
13
127
26
171
153
90
8
57
167
174
3
39
65
32
45
43
82
197
64
102
181
158
190
103
164
21
155
27
62
48
69
101
81
94
35
169
97
76
87
55
84
170
192
156
132
160
24
50
12
105
152
37
142
123
31
53
60
100
46
213
63
126
205
118
22
40
135
106
200
74
115
143
108
122
9
198
78
4
34
113

> <PUBCHEM_MMFF94_PARTIAL_CHARGES>
43
1 1.45
11 0.28
12 0.28
13 0.36
14 0.26
15 0.28
16 0.28
17 0.13
18 -0.01
19 0.05
2 -0.56
20 -0.15
21 -0.15
22 -0.15
23 -0.15
25 -0.15
27 -0.15
28 -0.15
29 -0.15
3 -0.56
30 -0.15
31 -0.15
32 -0.15
33 -0.15
4 -0.65
42 0.42
43 0.15
44 0.15
45 0.15
46 0.15
47 0.15
48 0.15
49 0.15
5 -0.65
50 0.15
51 0.15
52 0.15
53 0.15
54 0.15
6 0.31
7 -0.91
8 -0.42
9 -0.34

> <PUBCHEM_EFFECTIVE_ROTOR_COUNT>
6.2

> <PUBCHEM_PHARMACOPHORE_FEATURES>
12
1 2 acceptor
1 3 acceptor
1 4 acceptor
1 5 acceptor
1 7 donor
3 6 9 17 cation
5 2 11 12 13 15 rings
5 3 11 12 14 16 rings
5 6 8 9 10 17 rings
6 18 20 21 24 25 26 rings
6 19 22 23 27 28 31 rings
6 24 26 29 30 32 33 rings

> <PUBCHEM_HEAVY_ATOM_COUNT>
33

> <PUBCHEM_ATOM_DEF_STEREO_COUNT>
4

> <PUBCHEM_ATOM_UDEF_STEREO_COUNT>
0

> <PUBCHEM_BOND_DEF_STEREO_COUNT>
0

> <PUBCHEM_BOND_UDEF_STEREO_COUNT>
0

> <PUBCHEM_ISOTOPIC_ATOM_COUNT>
0

> <PUBCHEM_COMPONENT_COUNT>
1

> <PUBCHEM_CACTVS_TAUTO_COUNT>
1

> <PUBCHEM_CONFORMER_ID>
00B55E2D00000001

> <PUBCHEM_MMFF94_ENERGY>
77.1729

> <PUBCHEM_FEATURE_SELFOVERLAP>
61.636

> <PUBCHEM_SHAPE_FINGERPRINT>
10165383 225 18271252630025432801
10190108 129 17969804023748118051
10904742 90 18199473173696102777
11828532 37 17973724980870660919
12422481 6 17386555844257788690
12596602 18 12179857108015033388
128238 76 10015571823252754050
13690498 29 17987790946808624615
14040221 299 14852471847057367489
14251751 93 18410291449571104095
14279260 333 17896040932535054712
14347332 77 18197495331975263599
14713325 29 18337114565813701979
14790565 3 18122908624948819152
14856354 85 16660945312706463569
15021287 119 16732979839102902828
151778 21 18193839237381207073
15183329 4 18260543433894299362
15419009 47 18272089349388596734
17809404 112 17488762124391449534
19311894 1 18411418414519352213
20775438 99 15604799900978613799
21304303 282 17129884723987130472
21756936 100 18272369746444495393
21987440 362 17831586379171669836
22393880 68 18411972581322324688
22440779 20 16303781201681637074
3459 83 18057328284328396502
3610482 184 18042144174777562340
38695281 34 18266464204693011945
392239 28 14996870739624968029
444769 64 18261955142383965570
445580 125 18411422804255302116
469060 322 15069743213665849779
4918855 1 13913196516143224870
50677037 204 17678465383816918876
508706 21 18261111923859894230
5252454 2 18335412414412906469
5283173 99 18343018921948178080
57527585 103 16446164701445031881
6442390 28 9367352535748434788
6523845 18 18130790023851183545
70251023 43 17199363117866634703

> <PUBCHEM_SHAPE_MULTIPOLES>
634.59
13.42
4.34
1.86
16.82
1.09
0.03
-5.55
3.24
-5.64
0.25
-0.81
0.34
-1.03

> <PUBCHEM_SHAPE_SELFOVERLAP>
1402.066

> <PUBCHEM_SHAPE_VOLUME>
341.9

> <PUBCHEM_COORDINATE_TYPE>
2
5
10

$$$$
