11867055
  -OEChem-12032416203D

 73 77  0     1  0  0  0  0  0999 V2000
   -0.0191   -2.9161    0.3014 S   0  0  0  0  0  0  0  0  0  0  0  0
   -8.6177   -3.0695    0.0092 F   0  0  0  0  0  0  0  0  0  0  0  0
    7.4642   -0.7561   -0.6799 O   0  0  0  0  0  0  0  0  0  0  0  0
    7.0927   -2.4592    0.9651 O   0  0  0  0  0  0  0  0  0  0  0  0
   -0.0447    2.0656   -1.6287 O   0  0  0  0  0  0  0  0  0  0  0  0
   -3.3316    0.3033   -0.2778 O   0  0  0  0  0  0  0  0  0  0  0  0
   -0.4639   -0.3996   -0.1019 N   0  0  0  0  0  0  0  0  0  0  0  0
   -0.2319    3.6829    0.0297 N   0  0  0  0  0  0  0  0  0  0  0  0
   -2.3954   -1.8300    0.0795 N   0  0  0  0  0  0  0  0  0  0  0  0
    3.3241    0.2009    0.2961 C   0  0  2  0  0  0  0  0  0  0  0  0
    3.6927   -1.2335   -0.2887 C   0  0  1  0  0  0  0  0  0  0  0  0
    5.2151   -1.6455   -0.2678 C   0  0  1  0  0  0  0  0  0  0  0  0
    1.8581    0.5797   -0.2148 C   0  0  1  0  0  0  0  0  0  0  0  0
    4.3206    1.2539   -0.2544 C   0  0  0  0  0  0  0  0  0  0  0  0
    6.0726   -0.4650   -0.8060 C   0  0  1  0  0  0  0  0  0  0  0  0
    2.7379   -2.3338    0.2597 C   0  0  0  0  0  0  0  0  0  0  0  0
    5.7825    0.8571   -0.1045 C   0  0  0  0  0  0  0  0  0  0  0  0
    3.3577    0.2462    1.8437 C   0  0  0  0  0  0  0  0  0  0  0  0
    0.9059   -0.5744   -0.0333 C   0  0  0  0  0  0  0  0  0  0  0  0
    5.7320   -2.1188    1.1088 C   0  0  0  0  0  0  0  0  0  0  0  0
    5.4281   -2.8481   -1.2302 C   0  0  0  0  0  0  0  0  0  0  0  0
    1.3220   -1.8760    0.1601 C   0  0  0  0  0  0  0  0  0  0  0  0
    1.2902    1.8754    0.3802 C   0  0  0  0  0  0  0  0  0  0  0  0
    0.2750    2.5213   -0.5342 C   0  0  0  0  0  0  0  0  0  0  0  0
   -1.0519   -1.5640    0.0681 C   0  0  0  0  0  0  0  0  0  0  0  0
   -1.2176    4.5099   -0.6216 C   0  0  0  0  0  0  0  0  0  0  0  0
   -1.1119    5.9640   -0.1802 C   0  0  0  0  0  0  0  0  0  0  0  0
   -2.6363    4.1345   -0.2103 C   0  0  0  0  0  0  0  0  0  0  0  0
   -1.8650    6.0182    1.1461 C   0  0  0  0  0  0  0  0  0  0  0  0
   -2.8727    4.8689    1.1083 C   0  0  0  0  0  0  0  0  0  0  0  0
   -3.4371   -0.9037   -0.0901 C   0  0  0  0  0  0  0  0  0  0  0  0
   -4.8091   -1.4768   -0.0630 C   0  0  0  0  0  0  0  0  0  0  0  0
   -5.8444   -0.8399   -0.7472 C   0  0  0  0  0  0  0  0  0  0  0  0
   -5.0604   -2.6517    0.6455 C   0  0  0  0  0  0  0  0  0  0  0  0
   -7.1311   -1.3778   -0.7228 C   0  0  0  0  0  0  0  0  0  0  0  0
   -6.3471   -3.1897    0.6700 C   0  0  0  0  0  0  0  0  0  0  0  0
   -7.3824   -2.5527   -0.0142 C   0  0  0  0  0  0  0  0  0  0  0  0
    3.4537   -1.1503   -1.3633 H   0  0  0  0  0  0  0  0  0  0  0  0
    1.9471    0.7068   -1.3042 H   0  0  0  0  0  0  0  0  0  0  0  0
    4.1216    1.4257   -1.3206 H   0  0  0  0  0  0  0  0  0  0  0  0
    4.1799    2.2207    0.2419 H   0  0  0  0  0  0  0  0  0  0  0  0
    5.8733   -0.3404   -1.8787 H   0  0  0  0  0  0  0  0  0  0  0  0
    2.9659   -2.5643    1.3056 H   0  0  0  0  0  0  0  0  0  0  0  0
    2.8584   -3.2578   -0.3156 H   0  0  0  0  0  0  0  0  0  0  0  0
    6.0765    0.8098    0.9498 H   0  0  0  0  0  0  0  0  0  0  0  0
    6.4139    1.6429   -0.5388 H   0  0  0  0  0  0  0  0  0  0  0  0
    3.0718    1.2356    2.2173 H   0  0  0  0  0  0  0  0  0  0  0  0
    4.3491    0.0642    2.2534 H   0  0  0  0  0  0  0  0  0  0  0  0
    2.6722   -0.4732    2.3001 H   0  0  0  0  0  0  0  0  0  0  0  0
    5.6738   -1.3485    1.8736 H   0  0  0  0  0  0  0  0  0  0  0  0
    5.1935   -3.0026    1.4640 H   0  0  0  0  0  0  0  0  0  0  0  0
    6.4887   -3.0723   -1.3904 H   0  0  0  0  0  0  0  0  0  0  0  0
    4.9611   -3.7625   -0.8497 H   0  0  0  0  0  0  0  0  0  0  0  0
    4.9974   -2.6417   -2.2169 H   0  0  0  0  0  0  0  0  0  0  0  0
    0.8192    1.6920    1.3542 H   0  0  0  0  0  0  0  0  0  0  0  0
    2.0785    2.6204    0.5280 H   0  0  0  0  0  0  0  0  0  0  0  0
    7.9570   -0.0142   -1.0698 H   0  0  0  0  0  0  0  0  0  0  0  0
    7.4080   -2.7652    1.8324 H   0  0  0  0  0  0  0  0  0  0  0  0
    0.0666    3.9429    0.9658 H   0  0  0  0  0  0  0  0  0  0  0  0
   -1.0875    4.4158   -1.7050 H   0  0  0  0  0  0  0  0  0  0  0  0
   -0.0800    6.3148   -0.0795 H   0  0  0  0  0  0  0  0  0  0  0  0
   -1.6186    6.6093   -0.9085 H   0  0  0  0  0  0  0  0  0  0  0  0
   -3.3470    4.5061   -0.9588 H   0  0  0  0  0  0  0  0  0  0  0  0
   -2.7904    3.0561   -0.1091 H   0  0  0  0  0  0  0  0  0  0  0  0
   -2.6121   -2.8160    0.1865 H   0  0  0  0  0  0  0  0  0  0  0  0
   -1.1725    5.8770    1.9841 H   0  0  0  0  0  0  0  0  0  0  0  0
   -2.3557    6.9863    1.2880 H   0  0  0  0  0  0  0  0  0  0  0  0
   -3.9035    5.2308    1.1790 H   0  0  0  0  0  0  0  0  0  0  0  0
   -2.7030    4.1969    1.9575 H   0  0  0  0  0  0  0  0  0  0  0  0
   -5.6693    0.0733   -1.3098 H   0  0  0  0  0  0  0  0  0  0  0  0
   -4.2945   -3.1617    1.2219 H   0  0  0  0  0  0  0  0  0  0  0  0
   -7.9374   -0.8831   -1.2564 H   0  0  0  0  0  0  0  0  0  0  0  0
   -6.5455   -4.1002    1.2279 H   0  0  0  0  0  0  0  0  0  0  0  0
  1 22  1  0  0  0  0
  1 25  1  0  0  0  0
  2 37  1  0  0  0  0
  3 15  1  0  0  0  0
  3 57  1  0  0  0  0
  4 20  1  0  0  0  0
  4 58  1  0  0  0  0
  5 24  2  0  0  0  0
  6 31  2  0  0  0  0
  7 19  1  0  0  0  0
  7 25  2  0  0  0  0
  8 24  1  0  0  0  0
  8 26  1  0  0  0  0
  8 59  1  0  0  0  0
  9 25  1  0  0  0  0
  9 31  1  0  0  0  0
  9 65  1  0  0  0  0
 10 11  1  0  0  0  0
 10 13  1  0  0  0  0
 10 14  1  0  0  0  0
 10 18  1  0  0  0  0
 11 12  1  0  0  0  0
 11 16  1  0  0  0  0
 11 38  1  0  0  0  0
 12 15  1  0  0  0  0
 12 20  1  0  0  0  0
 12 21  1  0  0  0  0
 13 19  1  0  0  0  0
 13 23  1  0  0  0  0
 13 39  1  0  0  0  0
 14 17  1  0  0  0  0
 14 40  1  0  0  0  0
 14 41  1  0  0  0  0
 15 17  1  0  0  0  0
 15 42  1  0  0  0  0
 16 22  1  0  0  0  0
 16 43  1  0  0  0  0
 16 44  1  0  0  0  0
 17 45  1  0  0  0  0
 17 46  1  0  0  0  0
 18 47  1  0  0  0  0
 18 48  1  0  0  0  0
 18 49  1  0  0  0  0
 19 22  2  0  0  0  0
 20 50  1  0  0  0  0
 20 51  1  0  0  0  0
 21 52  1  0  0  0  0
 21 53  1  0  0  0  0
 21 54  1  0  0  0  0
 23 24  1  0  0  0  0
 23 55  1  0  0  0  0
 23 56  1  0  0  0  0
 26 27  1  0  0  0  0
 26 28  1  0  0  0  0
 26 60  1  0  0  0  0
 27 29  1  0  0  0  0
 27 61  1  0  0  0  0
 27 62  1  0  0  0  0
 28 30  1  0  0  0  0
 28 63  1  0  0  0  0
 28 64  1  0  0  0  0
 29 30  1  0  0  0  0
 29 66  1  0  0  0  0
 29 67  1  0  0  0  0
 30 68  1  0  0  0  0
 30 69  1  0  0  0  0
 31 32  1  0  0  0  0
 32 33  2  0  0  0  0
 32 34  1  0  0  0  0
 33 35  1  0  0  0  0
 33 70  1  0  0  0  0
 34 36  2  0  0  0  0
 34 71  1  0  0  0  0
 35 37  2  0  0  0  0
 35 72  1  0  0  0  0
 36 37  1  0  0  0  0
 36 73  1  0  0  0  0
M  END
> <PUBCHEM_COMPOUND_CID>
11867055

> <PUBCHEM_CONFORMER_RMSD>
1

> <PUBCHEM_CONFORMER_DIVERSEORDER>
1
27
12
5
13
25
11
8
30
6
10
7
17
18
29
26
23
21
28
24
3
4
20
19
2
15
16
14
9
22

> <PUBCHEM_MMFF94_PARTIAL_CHARGES>
34
1 -0.08
13 0.18
15 0.28
16 0.18
19 0.05
2 -0.19
20 0.28
22 -0.14
23 0.06
24 0.57
25 0.44
26 0.3
3 -0.68
31 0.54
32 0.09
33 -0.15
34 -0.15
35 -0.15
36 -0.15
37 0.19
4 -0.68
5 -0.57
57 0.4
58 0.4
59 0.37
6 -0.57
65 0.37
7 -0.57
70 0.15
71 0.15
72 0.15
73 0.15
8 -0.73
9 -0.49

> <PUBCHEM_EFFECTIVE_ROTOR_COUNT>
10.2

> <PUBCHEM_PHARMACOPHORE_FEATURES>
13
1 3 acceptor
1 3 donor
1 4 acceptor
1 4 donor
1 5 acceptor
1 6 acceptor
1 8 donor
1 9 donor
5 1 7 19 22 25 rings
5 26 27 28 29 30 rings
6 10 11 12 14 15 17 rings
6 10 11 13 16 19 22 rings
6 32 33 34 35 36 37 rings

> <PUBCHEM_HEAVY_ATOM_COUNT>
37

> <PUBCHEM_ATOM_DEF_STEREO_COUNT>
5

> <PUBCHEM_ATOM_UDEF_STEREO_COUNT>
0

> <PUBCHEM_BOND_DEF_STEREO_COUNT>
0

> <PUBCHEM_BOND_UDEF_STEREO_COUNT>
0

> <PUBCHEM_ISOTOPIC_ATOM_COUNT>
0

> <PUBCHEM_COMPONENT_COUNT>
1

> <PUBCHEM_CACTVS_TAUTO_COUNT>
6

> <PUBCHEM_CONFORMER_ID>
00B513AF00000001

> <PUBCHEM_MMFF94_ENERGY>
108.3879

> <PUBCHEM_FEATURE_SELFOVERLAP>
66.119

> <PUBCHEM_SHAPE_FINGERPRINT>
10050765 1 18122344576259613198
102385 1 17906452130312810327
10411042 1 18410575110981534893
11297750 10 18272079509729967320
11331351 85 18342735256443285429
12166972 35 17967252031036168919
12440605 4 18049450244581212267
12516196 113 18409166653254961911
12539745 222 18201154344159791834
12677640 9 18268151967869333076
12788726 201 18334009480514890872
13347071 3 18271808978788725977
13590594 115 18412262865609255601
13617811 41 18263927799489051660
13835254 42 18412543210535482984
14068700 675 18408605863796639261
14790565 3 17402052197578160620
14955137 171 18337110193478601831
15021287 119 18271806891308032751
15198563 99 18411141299114107405
15347591 1 18267305319269189894
15351339 4 17967800636099619115
15419008 47 18130782369507045865
15483637 11 18194966244661579112
15629462 23 18334583399873120539
15927050 60 17761496893651201971
15968369 153 18128796634322430180
16090146 7 17096104519111661650
16992752 21 18410867555252329932
18365409 1 18120099381894886613
18681886 176 18340200903706528987
19301679 30 18411700967675486814
19611394 137 18043260239642489275
21133410 127 17320407314083275709
21133410 38 17336751112112038625
21772528 278 17765714625147073765
23516275 137 16269669664693610460
23559900 14 18191863634193144475
23576562 1 18262252011003805876
244849 19 17558807552337418544
24771293 8 17912346930182021888
24771750 20 17467361457311858941
283562 15 18262238820072315282
3103668 31 18262234414101015061
4015057 19 18192706968465385659
4760202 170 18338782517412246927
58902169 19 17987788761809306047
59521099 67 18271241755374435025
653340 110 18267579122289396512
6697151 62 18193531550488056023
6700243 42 17914929519333172189
9777508 108 18051406275645751161
9896288 288 18198059170965257407

> <PUBCHEM_SHAPE_MULTIPOLES>
719.6
18.58
7.48
1.05
9.09
16.01
-0.13
-24.14
0.93
9.99
-1.23
-0.59
0.22
-0.27

> <PUBCHEM_SHAPE_SELFOVERLAP>
1532.683

> <PUBCHEM_SHAPE_VOLUME>
404.2

> <PUBCHEM_COORDINATE_TYPE>
2
5
10

$$$$
