45783678
  -OEChem-12032416263D

 45 49  0     1  0  0  0  0  0999 V2000
   -2.0785   -0.1918    2.0458 O   0  0  0  0  0  0  0  0  0  0  0  0
   -4.1558   -0.6218   -0.7557 N   0  0  1  0  0  0  0  0  0  0  0  0
   -1.1682   -0.9699    0.1529 N   0  0  0  0  0  0  0  0  0  0  0  0
   -2.7126    1.9342   -1.4965 N   0  0  0  0  0  0  0  0  0  0  0  0
   -3.4290    2.5970    0.4983 N   0  0  0  0  0  0  0  0  0  0  0  0
   -0.7072    0.0799    2.1327 N   0  0  0  0  0  0  0  0  0  0  0  0
    3.4021    0.3101    1.2004 N   0  0  0  0  0  0  0  0  0  0  0  0
    5.1543   -0.1326   -0.2941 N   0  0  0  0  0  0  0  0  0  0  0  0
    7.3157    0.3332   -0.0864 N   0  0  0  0  0  0  0  0  0  0  0  0
   -3.6847   -1.2131    0.5127 C   0  0  1  0  0  0  0  0  0  0  0  0
   -3.8418   -2.7324    0.3181 C   0  0  0  0  0  0  0  0  0  0  0  0
   -4.4636   -2.8945   -1.0617 C   0  0  0  0  0  0  0  0  0  0  0  0
   -5.1335   -1.5582   -1.3103 C   0  0  0  0  0  0  0  0  0  0  0  0
   -4.7087    0.7169   -0.5951 C   0  0  0  0  0  0  0  0  0  0  0  0
   -2.2645   -0.8107    0.8505 C   0  0  0  0  0  0  0  0  0  0  0  0
   -3.6289    1.7615   -0.4967 C   0  0  0  0  0  0  0  0  0  0  0  0
   -0.2395   -0.4081    0.9799 C   0  0  0  0  0  0  0  0  0  0  0  0
   -1.8751    2.9442   -1.1148 C   0  0  0  0  0  0  0  0  0  0  0  0
    1.1492   -0.3519    0.6250 C   0  0  0  0  0  0  0  0  0  0  0  0
   -2.3371    3.3371    0.1192 C   0  0  0  0  0  0  0  0  0  0  0  0
    1.6023   -0.8711   -0.5827 C   0  0  0  0  0  0  0  0  0  0  0  0
    2.0809    0.2232    1.4740 C   0  0  0  0  0  0  0  0  0  0  0  0
    2.9544   -0.8005   -0.8998 C   0  0  0  0  0  0  0  0  0  0  0  0
    3.8055   -0.2053    0.0175 C   0  0  0  0  0  0  0  0  0  0  0  0
    5.7480   -0.5953   -1.4346 C   0  0  0  0  0  0  0  0  0  0  0  0
    6.1347    0.4164    0.4848 C   0  0  0  0  0  0  0  0  0  0  0  0
    7.0816   -0.2965   -1.2833 C   0  0  0  0  0  0  0  0  0  0  0  0
   -4.3406   -0.9215    1.3452 H   0  0  0  0  0  0  0  0  0  0  0  0
   -2.9020   -3.2905    0.3895 H   0  0  0  0  0  0  0  0  0  0  0  0
   -4.5264   -3.1317    1.0765 H   0  0  0  0  0  0  0  0  0  0  0  0
   -3.6776   -3.0730   -1.8060 H   0  0  0  0  0  0  0  0  0  0  0  0
   -5.1674   -3.7310   -1.1028 H   0  0  0  0  0  0  0  0  0  0  0  0
   -5.3084   -1.3885   -2.3772 H   0  0  0  0  0  0  0  0  0  0  0  0
   -6.0922   -1.5083   -0.7784 H   0  0  0  0  0  0  0  0  0  0  0  0
   -5.3101    0.9785   -1.4766 H   0  0  0  0  0  0  0  0  0  0  0  0
   -5.3829    0.7862    0.2678 H   0  0  0  0  0  0  0  0  0  0  0  0
   -2.6610    1.4096   -2.3597 H   0  0  0  0  0  0  0  0  0  0  0  0
   -1.0553    3.2769   -1.7346 H   0  0  0  0  0  0  0  0  0  0  0  0
   -1.9384    4.1144    0.7545 H   0  0  0  0  0  0  0  0  0  0  0  0
    0.9243   -1.3352   -1.2945 H   0  0  0  0  0  0  0  0  0  0  0  0
    1.8094    0.6516    2.4343 H   0  0  0  0  0  0  0  0  0  0  0  0
    3.2590   -1.2181   -1.8508 H   0  0  0  0  0  0  0  0  0  0  0  0
    5.2421   -1.0844   -2.2538 H   0  0  0  0  0  0  0  0  0  0  0  0
    5.9482    0.8627    1.4531 H   0  0  0  0  0  0  0  0  0  0  0  0
    7.8851   -0.5027   -1.9752 H   0  0  0  0  0  0  0  0  0  0  0  0
  1  6  1  0  0  0  0
  1 15  1  0  0  0  0
  2 10  1  0  0  0  0
  2 13  1  0  0  0  0
  2 14  1  0  0  0  0
  3 15  2  0  0  0  0
  3 17  1  0  0  0  0
  4 16  1  0  0  0  0
  4 18  1  0  0  0  0
  4 37  1  0  0  0  0
  5 16  2  0  0  0  0
  5 20  1  0  0  0  0
  6 17  2  0  0  0  0
  7 22  1  0  0  0  0
  7 24  2  0  0  0  0
  8 24  1  0  0  0  0
  8 25  1  0  0  0  0
  8 26  1  0  0  0  0
  9 26  2  0  0  0  0
  9 27  1  0  0  0  0
 10 11  1  0  0  0  0
 10 15  1  0  0  0  0
 10 28  1  0  0  0  0
 11 12  1  0  0  0  0
 11 29  1  0  0  0  0
 11 30  1  0  0  0  0
 12 13  1  0  0  0  0
 12 31  1  0  0  0  0
 12 32  1  0  0  0  0
 13 33  1  0  0  0  0
 13 34  1  0  0  0  0
 14 16  1  0  0  0  0
 14 35  1  0  0  0  0
 14 36  1  0  0  0  0
 17 19  1  0  0  0  0
 18 20  2  0  0  0  0
 18 38  1  0  0  0  0
 19 21  1  0  0  0  0
 19 22  2  0  0  0  0
 20 39  1  0  0  0  0
 21 23  2  0  0  0  0
 21 40  1  0  0  0  0
 22 41  1  0  0  0  0
 23 24  1  0  0  0  0
 23 42  1  0  0  0  0
 25 27  2  0  0  0  0
 25 43  1  0  0  0  0
 26 44  1  0  0  0  0
 27 45  1  0  0  0  0
M  END
> <PUBCHEM_COMPOUND_CID>
45783678

> <PUBCHEM_CONFORMER_RMSD>
0.8

> <PUBCHEM_CONFORMER_DIVERSEORDER>
1
10
19
75
30
74
52
64
17
79
48
65
69
86
46
84
68
89
51
25
93
47
71
60
82
38
9
92
18
12
91
57
76
55
11
58
53
33
80
5
27
6
44
43
87
3
56
39
63
83
49
13
16
37
88
61
41
32
81
72
34
78
2
14
70
90
77
73
42
24
31
26
50
54
40
29
62
45
20
59
35
36
8
67
85
15
7
28
23
66
22
4
21

> <PUBCHEM_MMFF94_PARTIAL_CHARGES>
34
1 -0.02
10 0.45
13 0.27
14 0.45
15 0.3
16 0.01
17 0.46
18 -0.3
19 0.05
2 -0.81
20 0.08
21 -0.15
22 0.16
23 -0.15
24 0.29
25 -0.3
26 0.04
27 0.08
3 -0.57
37 0.27
38 0.15
39 0.15
4 0.03
40 0.15
41 0.15
42 0.15
43 0.15
44 0.15
45 0.15
5 -0.57
6 -0.41
7 -0.62
8 0.33
9 -0.57

> <PUBCHEM_EFFECTIVE_ROTOR_COUNT>
6

> <PUBCHEM_PHARMACOPHORE_FEATURES>
11
1 2 cation
1 4 donor
3 3 6 17 cation
3 4 5 16 cation
3 7 8 24 cation
3 8 9 26 cation
5 1 3 6 15 17 rings
5 2 10 11 12 13 rings
5 4 5 16 18 20 rings
5 8 9 25 26 27 rings
6 7 19 21 22 23 24 rings

> <PUBCHEM_HEAVY_ATOM_COUNT>
27

> <PUBCHEM_ATOM_DEF_STEREO_COUNT>
1

> <PUBCHEM_ATOM_UDEF_STEREO_COUNT>
0

> <PUBCHEM_BOND_DEF_STEREO_COUNT>
0

> <PUBCHEM_BOND_UDEF_STEREO_COUNT>
0

> <PUBCHEM_ISOTOPIC_ATOM_COUNT>
0

> <PUBCHEM_COMPONENT_COUNT>
1

> <PUBCHEM_CACTVS_TAUTO_COUNT>
1

> <PUBCHEM_CONFORMER_ID>
02BA9A7E00000001

> <PUBCHEM_MMFF94_ENERGY>
41.9161

> <PUBCHEM_FEATURE_SELFOVERLAP>
55.946

> <PUBCHEM_SHAPE_FINGERPRINT>
10 15 12035733141558833030
10087517 78 18113056017575333220
10165383 225 18129949962776590337
10291535 26 18186810166407152353
10670039 82 18259982673999451350
10937287 8 17617090309715350837
11089746 13 17603584162571905902
11101153 10 18263088884600981988
11315181 36 17240770618405006438
11477941 20 18336820978797089020
11524674 6 8070028852417518848
12788726 201 18261381244442920651
13782708 43 18131071554499126598
13947920 75 18114177531950787919
14251764 75 17541375744145725597
14713325 29 18341335505079235343
15183329 4 17749389227158586498
15876981 60 18260554454395214549
16992828 155 17387125360837373365
17093844 174 11746936533824184134
17980427 23 17604162470959145838
18927931 339 18408888464408248095
19489759 90 18259985980960959810
19958102 18 18272652333570472550
20771845 65 17771348858314924019
21033650 10 18262248711650997520
21236236 1 18261112950341013524
21756936 100 17458632181501497673
22393880 68 18272647926970611714
2297311 6 18410292549468054967
23198884 109 18113336401450696786
23402539 116 18113899381263258342
23522609 53 15408952437828701050
23557571 272 18412823599370114711
23559900 14 17632290215759547578
255183 451 17906166614457689551
4169191 19 16299531538001108956
46194498 28 18200589319684541624
484985 159 14045446861496245317
497634 4 17775013387696507849
531348 171 18339081471645679558
6608658 132 17967808323647999396
7237137 82 18409448076865897912

> <PUBCHEM_SHAPE_MULTIPOLES>
509.93
15.84
2.82
1.57
27.94
1.65
0.32
-3.21
-6
-6.41
-0.82
-0.04
-0.04
0.42

> <PUBCHEM_SHAPE_SELFOVERLAP>
1130.99

> <PUBCHEM_SHAPE_VOLUME>
274.5

> <PUBCHEM_COORDINATE_TYPE>
2
5
10

$$$$
