11912770
  -OEChem-12032416363D

 61 66  0     1  0  0  0  0  0999 V2000
    1.0121   -1.2864    1.5364 O   0  0  0  0  0  0  0  0  0  0  0  0
   -0.8127    1.1550    1.1861 O   0  0  0  0  0  0  0  0  0  0  0  0
    2.7226    0.7581    0.7650 O   0  0  0  0  0  0  0  0  0  0  0  0
    3.3536    0.5599   -1.4241 O   0  0  0  0  0  0  0  0  0  0  0  0
   -6.2804    3.1700   -0.9069 O   0  0  0  0  0  0  0  0  0  0  0  0
   -8.4239    2.8171    0.1362 O   0  0  0  0  0  0  0  0  0  0  0  0
   10.8046   -0.3980    0.0583 O   0  0  0  0  0  0  0  0  0  0  0  0
   -1.7709   -2.3382    0.6338 N   0  0  0  0  0  0  0  0  0  0  0  0
   -3.8469   -1.4046    0.1735 N   0  0  0  0  0  0  0  0  0  0  0  0
   -3.2352   -3.5745   -0.6779 N   0  0  0  0  0  0  0  0  0  0  0  0
    4.9241    0.5704    0.3118 N   0  0  0  0  0  0  0  0  0  0  0  0
   -0.7848   -0.1229    0.5163 C   0  0  1  0  0  0  0  0  0  0  0  0
    0.6732   -0.5122    0.3743 C   0  0  1  0  0  0  0  0  0  0  0  0
   -1.3623   -1.1908    1.4154 C   0  0  2  0  0  0  0  0  0  0  0  0
    1.3707    0.8269    0.3716 C   0  0  1  0  0  0  0  0  0  0  0  0
   -0.1778   -1.5481    2.2964 C   0  0  0  0  0  0  0  0  0  0  0  0
    0.5340    1.6238    1.3469 C   0  0  0  0  0  0  0  0  0  0  0  0
   -3.0047   -2.4436    0.0161 C   0  0  0  0  0  0  0  0  0  0  0  0
    3.6584    0.6211   -0.2393 C   0  0  0  0  0  0  0  0  0  0  0  0
   -5.0400   -1.5409   -0.4413 C   0  0  0  0  0  0  0  0  0  0  0  0
   -4.4472   -3.6441   -1.2667 C   0  0  0  0  0  0  0  0  0  0  0  0
   -5.3989   -2.6485   -1.1822 C   0  0  0  0  0  0  0  0  0  0  0  0
    6.1608    0.4357   -0.3591 C   0  0  0  0  0  0  0  0  0  0  0  0
   -5.9452   -0.4289   -0.2759 C   0  0  0  0  0  0  0  0  0  0  0  0
   -5.5716    0.8414   -0.7212 C   0  0  0  0  0  0  0  0  0  0  0  0
    7.3501    0.4033    0.3690 C   0  0  0  0  0  0  0  0  0  0  0  0
    6.1917    0.3355   -1.7500 C   0  0  0  0  0  0  0  0  0  0  0  0
   -7.1959   -0.6347    0.3328 C   0  0  0  0  0  0  0  0  0  0  0  0
   -6.4698    1.8730   -0.5407 C   0  0  0  0  0  0  0  0  0  0  0  0
   -7.6939    1.6716    0.0550 C   0  0  0  0  0  0  0  0  0  0  0  0
   -8.0872    0.4274    0.5032 C   0  0  0  0  0  0  0  0  0  0  0  0
    8.5703    0.2708   -0.2938 C   0  0  0  0  0  0  0  0  0  0  0  0
    7.4118    0.2029   -2.4128 C   0  0  0  0  0  0  0  0  0  0  0  0
    8.6011    0.1706   -1.6847 C   0  0  0  0  0  0  0  0  0  0  0  0
   -7.5227    3.7622   -0.4753 C   0  0  0  0  0  0  0  0  0  0  0  0
    9.8104    0.2363    0.4647 C   0  0  0  0  0  0  0  0  0  0  0  0
    9.9227    0.9835    1.7892 C   0  0  0  0  0  0  0  0  0  0  0  0
   -1.2919   -0.0002   -0.4459 H   0  0  0  0  0  0  0  0  0  0  0  0
    0.8898   -1.1230   -0.5069 H   0  0  0  0  0  0  0  0  0  0  0  0
   -2.1842   -0.8378    2.0488 H   0  0  0  0  0  0  0  0  0  0  0  0
    1.2554    1.2962   -0.6151 H   0  0  0  0  0  0  0  0  0  0  0  0
   -0.1416   -0.9042    3.1821 H   0  0  0  0  0  0  0  0  0  0  0  0
   -0.1711   -2.5901    2.6311 H   0  0  0  0  0  0  0  0  0  0  0  0
    0.8423    1.4652    2.3864 H   0  0  0  0  0  0  0  0  0  0  0  0
    0.5747    2.6991    1.1487 H   0  0  0  0  0  0  0  0  0  0  0  0
   -1.1131   -3.0932    0.4761 H   0  0  0  0  0  0  0  0  0  0  0  0
    4.9758    0.6382    1.3253 H   0  0  0  0  0  0  0  0  0  0  0  0
   -4.6380   -4.5523   -1.8284 H   0  0  0  0  0  0  0  0  0  0  0  0
   -6.3575   -2.7470   -1.6765 H   0  0  0  0  0  0  0  0  0  0  0  0
   -4.6123    1.0231   -1.1957 H   0  0  0  0  0  0  0  0  0  0  0  0
    7.3099    0.4694    1.4537 H   0  0  0  0  0  0  0  0  0  0  0  0
   -7.4879   -1.6215    0.6861 H   0  0  0  0  0  0  0  0  0  0  0  0
    5.3132    0.3531   -2.3799 H   0  0  0  0  0  0  0  0  0  0  0  0
   -9.0517    0.2733    0.9734 H   0  0  0  0  0  0  0  0  0  0  0  0
    7.4371    0.1258   -3.4960 H   0  0  0  0  0  0  0  0  0  0  0  0
    9.5424    0.0707   -2.2188 H   0  0  0  0  0  0  0  0  0  0  0  0
   -7.3007    4.5547    0.2487 H   0  0  0  0  0  0  0  0  0  0  0  0
   -8.0191    4.2087   -1.3446 H   0  0  0  0  0  0  0  0  0  0  0  0
   10.9628    1.2879    1.9400 H   0  0  0  0  0  0  0  0  0  0  0  0
    9.3137    1.8914    1.7758 H   0  0  0  0  0  0  0  0  0  0  0  0
    9.6113    0.3283    2.6064 H   0  0  0  0  0  0  0  0  0  0  0  0
  1 13  1  0  0  0  0
  1 16  1  0  0  0  0
  2 12  1  0  0  0  0
  2 17  1  0  0  0  0
  3 15  1  0  0  0  0
  3 19  1  0  0  0  0
  4 19  2  0  0  0  0
  5 29  1  0  0  0  0
  5 35  1  0  0  0  0
  6 30  1  0  0  0  0
  6 35  1  0  0  0  0
  7 36  2  0  0  0  0
  8 14  1  0  0  0  0
  8 18  1  0  0  0  0
  8 46  1  0  0  0  0
  9 18  1  0  0  0  0
  9 20  2  0  0  0  0
 10 18  2  0  0  0  0
 10 21  1  0  0  0  0
 11 19  1  0  0  0  0
 11 23  1  0  0  0  0
 11 47  1  0  0  0  0
 12 13  1  0  0  0  0
 12 14  1  0  0  0  0
 12 38  1  0  0  0  0
 13 15  1  0  0  0  0
 13 39  1  0  0  0  0
 14 16  1  0  0  0  0
 14 40  1  0  0  0  0
 15 17  1  0  0  0  0
 15 41  1  0  0  0  0
 16 42  1  0  0  0  0
 16 43  1  0  0  0  0
 17 44  1  0  0  0  0
 17 45  1  0  0  0  0
 20 22  1  0  0  0  0
 20 24  1  0  0  0  0
 21 22  2  0  0  0  0
 21 48  1  0  0  0  0
 22 49  1  0  0  0  0
 23 26  1  0  0  0  0
 23 27  2  0  0  0  0
 24 25  2  0  0  0  0
 24 28  1  0  0  0  0
 25 29  1  0  0  0  0
 25 50  1  0  0  0  0
 26 32  2  0  0  0  0
 26 51  1  0  0  0  0
 27 33  1  0  0  0  0
 27 53  1  0  0  0  0
 28 31  2  0  0  0  0
 28 52  1  0  0  0  0
 29 30  2  0  0  0  0
 30 31  1  0  0  0  0
 31 54  1  0  0  0  0
 32 34  1  0  0  0  0
 32 36  1  0  0  0  0
 33 34  2  0  0  0  0
 33 55  1  0  0  0  0
 34 56  1  0  0  0  0
 35 57  1  0  0  0  0
 35 58  1  0  0  0  0
 36 37  1  0  0  0  0
 37 59  1  0  0  0  0
 37 60  1  0  0  0  0
 37 61  1  0  0  0  0
M  END
> <PUBCHEM_COMPOUND_CID>
11912770

> <PUBCHEM_CONFORMER_RMSD>
1

> <PUBCHEM_CONFORMER_DIVERSEORDER>
2
146
158
197
177
208
133
153
234
233
232
147
122
228
63
27
150
154
120
239
183
207
80
18
192
199
221
32
88
101
85
68
117
226
136
90
64
28
107
219
244
155
181
94
99
143
218
83
225
119
236
78
227
196
76
165
161
159
163
131
182
65
26
170
41
145
224
149
79
195
223
110
229
214
242
128
187
137
186
12
66
74
102
235
73
16
178
212
135
138
171
81
24
54
111
25
124
127
95
30
164
125
70
42
222
148
89
105
97
237
243
169
179
96
141
241
231
151
162
109
129
209
61
47
172
104
55
191
59
98
58
115
166
168
17
22
190
140
14
203
77
33
84
142
87
173
202
23
193
213
126
201
44
60
210
211
21
157
116
198
100
53
189
15
51
240
71
38
106
206
118
130
31
7
204
188
205
220
50
184
40
11
72
45
1
75
34
167
200
114
49
185
43
9
194
39
132
216
6
35
215
62
46
139
123
57
36
217
103
93
56
176
134
5
10
3
82
67
20
37
144
108
174
113
160
230
52
175
91
121
152
8
69
238
29
156
13
86
48
19
92
180
112
4

> <PUBCHEM_MMFF94_PARTIAL_CHARGES>
47
1 -0.56
10 -0.62
11 -0.55
12 0.28
13 0.28
14 0.37
15 0.28
16 0.28
17 0.28
18 0.72
19 0.78
2 -0.56
20 0.31
21 0.16
22 -0.15
23 0.12
25 -0.15
26 -0.15
27 -0.15
28 -0.15
29 0.08
3 -0.43
30 0.08
31 -0.15
32 0.09
33 -0.15
34 -0.15
35 0.56
36 0.42
37 0.06
4 -0.57
46 0.4
47 0.37
48 0.15
49 0.15
5 -0.36
50 0.15
51 0.15
52 0.15
53 0.15
54 0.15
55 0.15
56 0.15
6 -0.36
7 -0.57
8 -0.87
9 -0.62

> <PUBCHEM_EFFECTIVE_ROTOR_COUNT>
9.8

> <PUBCHEM_PHARMACOPHORE_FEATURES>
16
1 1 acceptor
1 11 donor
1 2 acceptor
1 4 acceptor
1 5 acceptor
1 6 acceptor
1 7 acceptor
1 8 donor
1 9 acceptor
4 8 9 10 18 cation
5 1 12 13 14 16 rings
5 2 12 13 15 17 rings
5 5 6 29 30 35 rings
6 23 26 27 32 33 34 rings
6 24 25 28 29 30 31 rings
6 9 10 18 20 21 22 rings

> <PUBCHEM_HEAVY_ATOM_COUNT>
37

> <PUBCHEM_ATOM_DEF_STEREO_COUNT>
4

> <PUBCHEM_ATOM_UDEF_STEREO_COUNT>
0

> <PUBCHEM_BOND_DEF_STEREO_COUNT>
0

> <PUBCHEM_BOND_UDEF_STEREO_COUNT>
0

> <PUBCHEM_ISOTOPIC_ATOM_COUNT>
0

> <PUBCHEM_COMPONENT_COUNT>
1

> <PUBCHEM_CACTVS_TAUTO_COUNT>
12

> <PUBCHEM_CONFORMER_ID>
00B5C64200000002

> <PUBCHEM_MMFF94_ENERGY>
120.6134

> <PUBCHEM_FEATURE_SELFOVERLAP>
82.074

> <PUBCHEM_SHAPE_FINGERPRINT>
10 15 11602812527726749760
10165383 225 18273217483622646299
10190206 1 18130515137085468057
10372059 70 18343582911157851376
10391435 84 17418094356153917398
10577160 183 18408040693366114842
10670039 82 18409724089545989487
10674148 151 18407758153532842240
10917259 69 18339359669372621497
11103572 95 18341894061804028262
11135926 11 17203061733059265279
11146346 171 11458416913765237592
11181472 205 17967540069571883060
11200772 48 18411142454634246347
11211813 128 11674879991636915401
11211813 163 18411136944180357255
11410812 94 18412262839998051732
11828042 53 17984988093864038681
12082328 90 17968099767280869899
12144603 126 18187362130551564322
12539745 222 16081948052161634793
12539747 91 17275100631426099912
12559415 135 18335421292448151588
12643181 29 18131351937989563831
12758862 11 18060415837248296801
13811026 1 17775287196921453234
13914758 101 18335704966337133470
14279260 333 17917996044916115541
14294032 229 18040991783138612349
14856354 85 17095808823777652851
150020 25 17847062190632745132
15065858 18 18131630111275575202
15183329 4 18202569479611398451
15419008 91 17845640560600009792
15444296 121 18041566931531447805
15890870 6 18339920408657062061
16992727 255 18408608050124955269
18603816 31 15626221351689110527
19841028 212 18341332203015204902
20105231 36 18265055928553006035
20609170 85 17917698099004375192
21026386 80 16773220903833002480
21095123 145 7925911478724853466
21133410 127 17828765046206564349
21756936 100 18113338631288102459
21781055 127 18113331986794036296
23389318 12 14117798025206989968
23516275 100 17464525409905186949
3092352 35 17312822692729731106
3986486 107 16845289390409587601
44575985 433 18057890143988697977
44575985 74 18411130309368859053
44802255 64 18272370863600898503
44880568 143 18340487884635783212
4516262 110 17822563925089521231
4625314 4 18201437017469248688
4760202 70 12175609707961592344
508180 173 18340770437580636553
57527295 17 18334006229077773515
57676310 115 18264776467519616353
58083652 198 14189570871092100634
58902169 19 17967820478869541244
5911458 16 17822017501547756461
59521270 166 18409448086025616486
5969126 39 14908189624891495075
6009941 240 18059858380695151255
6126387 218 18342172298221539960
6201320 215 18337668620557563041
6698420 124 17168150078460789704
6703917 75 17603877732140236083
9689198 14 13118270495845522302
9962374 69 13038898933364175162

> <PUBCHEM_SHAPE_MULTIPOLES>
700.43
35.47
3.27
1.64
59.2
0.53
0.05
-16.58
6.48
-12.1
0.82
2.82
0.27
0.2

> <PUBCHEM_SHAPE_SELFOVERLAP>
1555.237

> <PUBCHEM_SHAPE_VOLUME>
373

> <PUBCHEM_COORDINATE_TYPE>
2
5
10

$$$$
