45783825
  -OEChem-12032416273D

 46 49  0     1  0  0  0  0  0999 V2000
   -1.2737   -2.2071    1.2535 O   0  0  0  0  0  0  0  0  0  0  0  0
   -3.5984    0.1537   -0.3365 N   0  0  1  0  0  0  0  0  0  0  0  0
   -0.7051   -0.5581   -0.1517 N   0  0  0  0  0  0  0  0  0  0  0  0
    0.1195   -2.0884    1.3356 N   0  0  0  0  0  0  0  0  0  0  0  0
    4.0773   -0.7734    0.6882 N   0  0  0  0  0  0  0  0  0  0  0  0
    5.5847    0.6935   -0.4306 N   0  0  0  0  0  0  0  0  0  0  0  0
   -3.8019    2.4772    0.3706 C   0  0  0  0  0  0  0  0  0  0  0  0
   -2.4555    3.1267    0.2409 C   0  0  0  0  0  0  0  0  0  0  0  0
   -3.3642    3.5034    1.3742 C   0  0  0  0  0  0  0  0  0  0  0  0
   -3.8843    1.0429    0.7819 C   0  0  0  0  0  0  0  0  0  0  0  0
   -3.1670   -1.1935    0.0866 C   0  0  1  0  0  0  0  0  0  0  0  0
   -4.7640   -0.0375   -1.1997 C   0  0  0  0  0  0  0  0  0  0  0  0
   -3.6128   -2.1240   -1.0566 C   0  0  0  0  0  0  0  0  0  0  0  0
   -4.3377   -1.2211   -2.0445 C   0  0  0  0  0  0  0  0  0  0  0  0
   -1.6789   -1.2705    0.3563 C   0  0  0  0  0  0  0  0  0  0  0  0
    0.3788   -1.0961    0.4789 C   0  0  0  0  0  0  0  0  0  0  0  0
    1.7086   -0.6198    0.2295 C   0  0  0  0  0  0  0  0  0  0  0  0
    1.9425    0.4143   -0.6702 C   0  0  0  0  0  0  0  0  0  0  0  0
    2.8003   -1.1750    0.8772 C   0  0  0  0  0  0  0  0  0  0  0  0
    3.2425    0.8552   -0.8914 C   0  0  0  0  0  0  0  0  0  0  0  0
    4.2657    0.2339   -0.1936 C   0  0  0  0  0  0  0  0  0  0  0  0
    6.7003    0.0956    0.2692 C   0  0  0  0  0  0  0  0  0  0  0  0
    5.8232    1.7684   -1.3680 C   0  0  0  0  0  0  0  0  0  0  0  0
   -4.5804    2.7688   -0.3238 H   0  0  0  0  0  0  0  0  0  0  0  0
   -1.5707    2.5479    0.4764 H   0  0  0  0  0  0  0  0  0  0  0  0
   -2.3188    3.8463   -0.5571 H   0  0  0  0  0  0  0  0  0  0  0  0
   -3.8368    4.4774    1.3381 H   0  0  0  0  0  0  0  0  0  0  0  0
   -3.0892    3.1782    2.3699 H   0  0  0  0  0  0  0  0  0  0  0  0
   -4.8655    0.8367    1.2282 H   0  0  0  0  0  0  0  0  0  0  0  0
   -3.1519    0.8709    1.5822 H   0  0  0  0  0  0  0  0  0  0  0  0
   -3.7035   -1.4975    0.9967 H   0  0  0  0  0  0  0  0  0  0  0  0
   -4.9722    0.8384   -1.8215 H   0  0  0  0  0  0  0  0  0  0  0  0
   -5.6654   -0.2910   -0.6273 H   0  0  0  0  0  0  0  0  0  0  0  0
   -4.3097   -2.8768   -0.6681 H   0  0  0  0  0  0  0  0  0  0  0  0
   -2.7868   -2.6517   -1.5455 H   0  0  0  0  0  0  0  0  0  0  0  0
   -3.6454   -0.8994   -2.8325 H   0  0  0  0  0  0  0  0  0  0  0  0
   -5.1846   -1.7242   -2.5203 H   0  0  0  0  0  0  0  0  0  0  0  0
    1.1311    0.8943   -1.2115 H   0  0  0  0  0  0  0  0  0  0  0  0
    2.7037   -1.9852    1.5940 H   0  0  0  0  0  0  0  0  0  0  0  0
    3.3802    1.6628   -1.5999 H   0  0  0  0  0  0  0  0  0  0  0  0
    6.5913    0.2226    1.3520 H   0  0  0  0  0  0  0  0  0  0  0  0
    6.7692   -0.9748    0.0460 H   0  0  0  0  0  0  0  0  0  0  0  0
    7.6563    0.5477   -0.0154 H   0  0  0  0  0  0  0  0  0  0  0  0
    5.5019    1.4973   -2.3800 H   0  0  0  0  0  0  0  0  0  0  0  0
    5.3265    2.6931   -1.0531 H   0  0  0  0  0  0  0  0  0  0  0  0
    6.8908    2.0059   -1.4412 H   0  0  0  0  0  0  0  0  0  0  0  0
  1  4  1  0  0  0  0
  1 15  1  0  0  0  0
  2 10  1  0  0  0  0
  2 11  1  0  0  0  0
  2 12  1  0  0  0  0
  3 15  2  0  0  0  0
  3 16  1  0  0  0  0
  4 16  2  0  0  0  0
  5 19  1  0  0  0  0
  5 21  2  0  0  0  0
  6 21  1  0  0  0  0
  6 22  1  0  0  0  0
  6 23  1  0  0  0  0
  7  8  1  0  0  0  0
  7  9  1  0  0  0  0
  7 10  1  0  0  0  0
  7 24  1  0  0  0  0
  8  9  1  0  0  0  0
  8 25  1  0  0  0  0
  8 26  1  0  0  0  0
  9 27  1  0  0  0  0
  9 28  1  0  0  0  0
 10 29  1  0  0  0  0
 10 30  1  0  0  0  0
 11 13  1  0  0  0  0
 11 15  1  0  0  0  0
 11 31  1  0  0  0  0
 12 14  1  0  0  0  0
 12 32  1  0  0  0  0
 12 33  1  0  0  0  0
 13 14  1  0  0  0  0
 13 34  1  0  0  0  0
 13 35  1  0  0  0  0
 14 36  1  0  0  0  0
 14 37  1  0  0  0  0
 16 17  1  0  0  0  0
 17 18  1  0  0  0  0
 17 19  2  0  0  0  0
 18 20  2  0  0  0  0
 18 38  1  0  0  0  0
 19 39  1  0  0  0  0
 20 21  1  0  0  0  0
 20 40  1  0  0  0  0
 22 41  1  0  0  0  0
 22 42  1  0  0  0  0
 22 43  1  0  0  0  0
 23 44  1  0  0  0  0
 23 45  1  0  0  0  0
 23 46  1  0  0  0  0
M  END
> <PUBCHEM_COMPOUND_CID>
45783825

> <PUBCHEM_CONFORMER_RMSD>
0.8

> <PUBCHEM_CONFORMER_DIVERSEORDER>
1
30
26
13
12
20
11
14
18
17
25
19
31
4
27
21
9
6
32
24
23
2
3
10
5
8
7
16
22
29
28
15

> <PUBCHEM_MMFF94_PARTIAL_CHARGES>
29
1 -0.02
10 0.37
11 0.45
12 0.27
15 0.3
16 0.46
17 0.05
18 -0.15
19 0.16
2 -0.81
20 -0.15
21 0.41
22 0.37
23 0.37
24 0.1
25 0.1
26 0.1
27 0.1
28 0.1
3 -0.57
38 0.15
39 0.15
4 -0.41
40 0.15
5 -0.62
6 -0.84
7 -0.19
8 -0.2
9 -0.2

> <PUBCHEM_EFFECTIVE_ROTOR_COUNT>
6.6

> <PUBCHEM_PHARMACOPHORE_FEATURES>
6
1 2 cation
3 3 4 16 cation
3 5 6 21 cation
5 1 3 4 15 16 rings
5 2 11 12 13 14 rings
6 5 17 18 19 20 21 rings

> <PUBCHEM_HEAVY_ATOM_COUNT>
23

> <PUBCHEM_ATOM_DEF_STEREO_COUNT>
1

> <PUBCHEM_ATOM_UDEF_STEREO_COUNT>
0

> <PUBCHEM_BOND_DEF_STEREO_COUNT>
0

> <PUBCHEM_BOND_UDEF_STEREO_COUNT>
0

> <PUBCHEM_ISOTOPIC_ATOM_COUNT>
0

> <PUBCHEM_COMPONENT_COUNT>
1

> <PUBCHEM_CACTVS_TAUTO_COUNT>
1

> <PUBCHEM_CONFORMER_ID>
02BA9B1100000001

> <PUBCHEM_MMFF94_ENERGY>
59.7116

> <PUBCHEM_FEATURE_SELFOVERLAP>
30.448

> <PUBCHEM_SHAPE_FINGERPRINT>
10087517 78 18411697695079322544
10291535 26 18337398226632672241
10670039 82 18411134727845428624
10871710 139 18410854318511399597
10937287 8 17696478382356744753
11049842 53 17556004798040215219
11089746 13 18411133676100407624
11477941 20 17845640564367930165
12107183 9 17905885873344834682
12166972 35 17750513052073732957
12596602 18 17313106362434730033
12788726 201 18342728616587674587
13583140 156 14923943457321636813
14187579 7 18272372026577121552
14251764 38 18270679887141245560
14739800 52 18267567152901339032
15064981 113 17987223448436669518
15183329 4 18113616777569972470
15348495 7 12251903724469669158
15420108 30 16540460515571609890
16988056 13 15748956123672772069
17818456 19 17768519500214017970
19489759 90 18273494589462426386
20775438 99 16614447262885901055
21033648 29 15502653754802643327
21033650 10 18127998371990705596
21236236 1 18411982446962813508
21756936 100 18409737244445501835
23402539 116 18410853287170232878
23516275 100 17840007865521802592
235170 7 17132115749080882077
23557571 272 17704353260242562929
23559900 14 18192705859487941488
25147074 1 18263351517487171090
2838139 119 18411702097673625392
312425 83 18059024869102793334
3268164 11 17917986179360263053
397830 11 12036024546658019052
441001 317 18411983567927951440
474 4 18041277673641694699
5104073 3 17458907167141294528
5283173 99 18202563965042215176
531348 171 18059298669078785238
6299153 45 18189048691067626722
6327066 14 18196088838187961109
6328613 192 18041006198029467844
633830 44 18262242097064212523
7288768 16 17749966457608924065
7808743 9 18270120102409487585

> <PUBCHEM_SHAPE_MULTIPOLES>
442.55
13.8
3.07
1.38
17.99
2.64
-0.29
4.57
-3.96
-4.66
0.87
-0.67
-0.24
-2.81

> <PUBCHEM_SHAPE_SELFOVERLAP>
941.257

> <PUBCHEM_SHAPE_VOLUME>
250.2

> <PUBCHEM_COORDINATE_TYPE>
2
5
10

$$$$
