75536380
  -OEChem-12032416303D

 59 62  0     1  0  0  0  0  0999 V2000
    3.4019   -0.0752    0.9088 O   0  0  0  0  0  0  0  0  0  0  0  0
    6.0284    0.8906    1.8343 O   0  0  0  0  0  0  0  0  0  0  0  0
   -0.1226   -2.6014   -1.3772 O   0  0  0  0  0  0  0  0  0  0  0  0
   -4.6715    2.1593   -0.2687 O   0  0  0  0  0  0  0  0  0  0  0  0
   -4.2310   -0.3454    2.2694 O   0  0  0  0  0  0  0  0  0  0  0  0
    1.6643    2.0059    0.0322 N   0  0  0  0  0  0  0  0  0  0  0  0
    1.2636   -2.6491   -1.4622 N   0  0  0  0  0  0  0  0  0  0  0  0
    3.8679    1.2786    0.8374 C   0  0  1  0  0  0  0  0  0  0  0  0
    5.3877    1.3362    0.6359 C   0  0  2  0  0  0  0  0  0  0  0  0
    3.7517   -0.8984   -0.2065 C   0  0  1  0  0  0  0  0  0  0  0  0
    5.8572    0.4375   -0.5048 C   0  0  0  0  0  0  0  0  0  0  0  0
    5.2691   -0.9644   -0.3726 C   0  0  0  0  0  0  0  0  0  0  0  0
    3.0962    2.0714   -0.2154 C   0  0  0  0  0  0  0  0  0  0  0  0
    3.1729   -2.2849    0.0478 C   0  0  0  0  0  0  0  0  0  0  0  0
    1.6959   -2.3335   -0.2380 C   0  0  0  0  0  0  0  0  0  0  0  0
    0.9101    2.3439   -1.1681 C   0  0  0  0  0  0  0  0  0  0  0  0
    0.6385   -2.0791    0.6524 C   0  0  0  0  0  0  0  0  0  0  0  0
   -0.5756    2.2951   -0.9289 C   0  0  0  0  0  0  0  0  0  0  0  0
   -0.4827   -2.2609   -0.1133 C   0  0  0  0  0  0  0  0  0  0  0  0
   -1.8933   -2.1733    0.1296 C   0  0  0  0  0  0  0  0  0  0  0  0
   -1.3768    1.4428   -1.6889 C   0  0  0  0  0  0  0  0  0  0  0  0
   -1.1510    3.1021    0.0527 C   0  0  0  0  0  0  0  0  0  0  0  0
   -2.7532    1.3972   -1.4671 C   0  0  0  0  0  0  0  0  0  0  0  0
   -2.5275    3.0566    0.2743 C   0  0  0  0  0  0  0  0  0  0  0  0
   -2.3822   -1.2901    1.0922 C   0  0  0  0  0  0  0  0  0  0  0  0
   -2.7765   -2.9734   -0.5956 C   0  0  0  0  0  0  0  0  0  0  0  0
   -3.3286    2.2041   -0.4854 C   0  0  0  0  0  0  0  0  0  0  0  0
   -3.7543   -1.2066    1.3295 C   0  0  0  0  0  0  0  0  0  0  0  0
   -4.1484   -2.8901   -0.3581 C   0  0  0  0  0  0  0  0  0  0  0  0
   -4.6374   -2.0065    0.6042 C   0  0  0  0  0  0  0  0  0  0  0  0
   -5.1932    3.0110    0.7503 C   0  0  0  0  0  0  0  0  0  0  0  0
    3.6429    1.7099    1.8218 H   0  0  0  0  0  0  0  0  0  0  0  0
    5.7110    2.3692    0.4665 H   0  0  0  0  0  0  0  0  0  0  0  0
    3.3073   -0.4850   -1.1198 H   0  0  0  0  0  0  0  0  0  0  0  0
    6.9511    0.3645   -0.5122 H   0  0  0  0  0  0  0  0  0  0  0  0
    5.5543    0.8683   -1.4662 H   0  0  0  0  0  0  0  0  0  0  0  0
    5.5355   -1.5625   -1.2514 H   0  0  0  0  0  0  0  0  0  0  0  0
    5.7162   -1.4534    0.5023 H   0  0  0  0  0  0  0  0  0  0  0  0
    3.3277    1.6840   -1.2136 H   0  0  0  0  0  0  0  0  0  0  0  0
    3.4182    3.1194   -0.1975 H   0  0  0  0  0  0  0  0  0  0  0  0
    3.3415   -2.5886    1.0888 H   0  0  0  0  0  0  0  0  0  0  0  0
    3.6684   -3.0284   -0.5899 H   0  0  0  0  0  0  0  0  0  0  0  0
    1.4151    1.0593    0.3210 H   0  0  0  0  0  0  0  0  0  0  0  0
    6.9881    0.9792    1.7047 H   0  0  0  0  0  0  0  0  0  0  0  0
    1.1738    1.6562   -1.9818 H   0  0  0  0  0  0  0  0  0  0  0  0
    1.1649    3.3559   -1.5081 H   0  0  0  0  0  0  0  0  0  0  0  0
    0.6897   -1.8053    1.6962 H   0  0  0  0  0  0  0  0  0  0  0  0
   -0.9434    0.8057   -2.4553 H   0  0  0  0  0  0  0  0  0  0  0  0
   -0.5399    3.7754    0.6483 H   0  0  0  0  0  0  0  0  0  0  0  0
   -3.3718    0.7292   -2.0603 H   0  0  0  0  0  0  0  0  0  0  0  0
   -2.9086    3.7103    1.0514 H   0  0  0  0  0  0  0  0  0  0  0  0
   -1.7087   -0.6546    1.6632 H   0  0  0  0  0  0  0  0  0  0  0  0
   -2.4230   -3.6762   -1.3462 H   0  0  0  0  0  0  0  0  0  0  0  0
   -4.8361   -3.5140   -0.9215 H   0  0  0  0  0  0  0  0  0  0  0  0
   -5.7084   -1.9509    0.7796 H   0  0  0  0  0  0  0  0  0  0  0  0
   -5.2010   -0.4119    2.2947 H   0  0  0  0  0  0  0  0  0  0  0  0
   -6.2749    2.8450    0.7874 H   0  0  0  0  0  0  0  0  0  0  0  0
   -5.0397    4.0682    0.5089 H   0  0  0  0  0  0  0  0  0  0  0  0
   -4.7959    2.7482    1.7366 H   0  0  0  0  0  0  0  0  0  0  0  0
  1  8  1  0  0  0  0
  1 10  1  0  0  0  0
  2  9  1  0  0  0  0
  2 44  1  0  0  0  0
  3  7  1  0  0  0  0
  3 19  1  0  0  0  0
  4 27  1  0  0  0  0
  4 31  1  0  0  0  0
  5 28  1  0  0  0  0
  5 56  1  0  0  0  0
  6 13  1  0  0  0  0
  6 16  1  0  0  0  0
  6 43  1  0  0  0  0
  7 15  2  0  0  0  0
  8  9  1  0  0  0  0
  8 13  1  0  0  0  0
  8 32  1  0  0  0  0
  9 11  1  0  0  0  0
  9 33  1  0  0  0  0
 10 12  1  0  0  0  0
 10 14  1  0  0  0  0
 10 34  1  0  0  0  0
 11 12  1  0  0  0  0
 11 35  1  0  0  0  0
 11 36  1  0  0  0  0
 12 37  1  0  0  0  0
 12 38  1  0  0  0  0
 13 39  1  0  0  0  0
 13 40  1  0  0  0  0
 14 15  1  0  0  0  0
 14 41  1  0  0  0  0
 14 42  1  0  0  0  0
 15 17  1  0  0  0  0
 16 18  1  0  0  0  0
 16 45  1  0  0  0  0
 16 46  1  0  0  0  0
 17 19  2  0  0  0  0
 17 47  1  0  0  0  0
 18 21  2  0  0  0  0
 18 22  1  0  0  0  0
 19 20  1  0  0  0  0
 20 25  2  0  0  0  0
 20 26  1  0  0  0  0
 21 23  1  0  0  0  0
 21 48  1  0  0  0  0
 22 24  2  0  0  0  0
 22 49  1  0  0  0  0
 23 27  2  0  0  0  0
 23 50  1  0  0  0  0
 24 27  1  0  0  0  0
 24 51  1  0  0  0  0
 25 28  1  0  0  0  0
 25 52  1  0  0  0  0
 26 29  2  0  0  0  0
 26 53  1  0  0  0  0
 28 30  2  0  0  0  0
 29 30  1  0  0  0  0
 29 54  1  0  0  0  0
 30 55  1  0  0  0  0
 31 57  1  0  0  0  0
 31 58  1  0  0  0  0
 31 59  1  0  0  0  0
M  END
> <PUBCHEM_COMPOUND_CID>
75536380

> <PUBCHEM_CONFORMER_RMSD>
1.2

> <PUBCHEM_CONFORMER_DIVERSEORDER>
1
64
137
69
114
141
27
130
48
94
85
6
70
128
100
122
56
42
78
110
101
127
68
11
53
133
34
39
95
86
52
89
71
80
31
19
111
55
142
7
123
24
108
87
59
32
67
90
21
138
132
84
92
119
93
65
40
3
99
37
4
54
97
88
66
103
135
104
2
124
45
23
106
73
43
36
57
105
13
118
20
113
140
147
25
15
76
26
47
63
143
112
60
38
109
62
125
121
136
41
74
18
17
44
116
102
146
22
50
117
58
83
33
14
134
115
79
98
139
75
96
9
82
10
46
144
91
72
51
61
49
81
28
120
5
126
35
107
12
8
129
131
16
145
29
77
30

> <PUBCHEM_MMFF94_PARTIAL_CHARGES>
41
1 -0.56
10 0.28
13 0.27
14 0.18
15 0.11
16 0.41
17 -0.15
18 -0.14
19 0.09
2 -0.68
20 0.05
21 -0.15
22 -0.15
23 -0.15
24 -0.15
25 -0.15
26 -0.15
27 0.08
28 0.08
29 -0.15
3 -0.02
30 -0.15
31 0.28
4 -0.36
43 0.36
44 0.4
47 0.15
48 0.15
49 0.15
5 -0.53
50 0.15
51 0.15
52 0.15
53 0.15
54 0.15
55 0.15
56 0.45
6 -0.9
7 -0.41
8 0.28
9 0.28

> <PUBCHEM_EFFECTIVE_ROTOR_COUNT>
9.2

> <PUBCHEM_PHARMACOPHORE_FEATURES>
12
1 1 acceptor
1 2 acceptor
1 2 donor
1 4 acceptor
1 5 donor
1 6 cation
1 6 donor
1 7 acceptor
5 3 7 15 17 19 rings
6 1 8 9 10 11 12 rings
6 18 21 22 23 24 27 rings
6 20 25 26 28 29 30 rings

> <PUBCHEM_HEAVY_ATOM_COUNT>
31

> <PUBCHEM_ATOM_DEF_STEREO_COUNT>
3

> <PUBCHEM_ATOM_UDEF_STEREO_COUNT>
0

> <PUBCHEM_BOND_DEF_STEREO_COUNT>
0

> <PUBCHEM_BOND_UDEF_STEREO_COUNT>
0

> <PUBCHEM_ISOTOPIC_ATOM_COUNT>
0

> <PUBCHEM_COMPONENT_COUNT>
1

> <PUBCHEM_CACTVS_TAUTO_COUNT>
3

> <PUBCHEM_CONFORMER_ID>
048097FC00000001

> <PUBCHEM_MMFF94_ENERGY>
71.2671

> <PUBCHEM_FEATURE_SELFOVERLAP>
60.899

> <PUBCHEM_SHAPE_FINGERPRINT>
10006869 2 18263913367929354015
10670039 82 18260842518432064334
10864689 126 17977955583195113900
11014199 57 17833271200489739778
11112241 14 18059558183856192665
12107698 1 18187920746587415882
12422481 6 18336557061403389225
12788726 201 18048610497076186972
13140716 1 18191580861529583778
13402501 40 18337112263230695877
14840074 17 18191877935753192796
20764821 26 18408321060061635142
21033648 29 18130493211208310976
21796203 349 17755900680166690392
24941158 1 16844185454104991614
3052486 1 18259708895947033308
338550 245 18261120702846868220
392239 28 18409166644770171510
469060 322 16732980916432766903
508706 21 18408039632335066894
56638632 10 17845085349703109992
653340 110 18412259545452167712

> <PUBCHEM_SHAPE_MULTIPOLES>
598.66
12.13
4.85
1.41
9.89
0.33
0.15
2.26
3.96
-4.66
-0.75
-0.45
0.05
0.81

> <PUBCHEM_SHAPE_SELFOVERLAP>
1281.497

> <PUBCHEM_SHAPE_VOLUME>
332

> <PUBCHEM_COORDINATE_TYPE>
2
5
10

$$$$
