45361713
  -OEChem-12032416233D

 73 77  0     1  0  0  0  0  0999 V2000
    6.8902   -0.1767   -2.4456 F   0  0  0  0  0  0  0  0  0  0  0  0
   -2.3773   -1.2788   -0.9110 O   0  0  0  0  0  0  0  0  0  0  0  0
    0.4919   -0.0465    1.7379 O   0  0  0  0  0  0  0  0  0  0  0  0
    4.2075   -2.7550    1.5243 O   0  0  0  0  0  0  0  0  0  0  0  0
    2.4206    3.2646   -0.7918 O   0  0  0  0  0  0  0  0  0  0  0  0
   -0.4299   -1.9958    0.1422 N   0  0  0  0  0  0  0  0  0  0  0  0
    2.4062   -2.2526    0.1215 N   0  0  0  0  0  0  0  0  0  0  0  0
   -4.9731   -3.8541   -0.8172 N   0  0  0  0  0  0  0  0  0  0  0  0
    0.5159    1.4173   -0.0721 N   0  0  0  0  0  0  0  0  0  0  0  0
   -3.6088    1.9955    1.7404 N   0  0  0  0  0  0  0  0  0  0  0  0
    2.4343    4.0397    1.3706 N   0  0  0  0  0  0  0  0  0  0  0  0
   -2.6217   -2.9869    0.7061 C   0  0  0  0  0  0  0  0  0  0  0  0
    0.3865   -0.9420   -0.4748 C   0  0  2  0  0  0  0  0  0  0  0  0
   -4.0244   -2.4381    0.9752 C   0  0  0  0  0  0  0  0  0  0  0  0
   -2.6909   -4.3435    0.0017 C   0  0  0  0  0  0  0  0  0  0  0  0
    0.2508   -2.8665    1.1158 C   0  0  0  0  0  0  0  0  0  0  0  0
    1.7724   -1.4214   -0.9090 C   0  0  0  0  0  0  0  0  0  0  0  0
   -1.8088   -2.0091   -0.0950 C   0  0  0  0  0  0  0  0  0  0  0  0
    1.5862   -3.3682    0.5825 C   0  0  0  0  0  0  0  0  0  0  0  0
   -4.9193   -2.5016   -0.2636 C   0  0  0  0  0  0  0  0  0  0  0  0
   -3.6420   -4.3269   -1.1960 C   0  0  0  0  0  0  0  0  0  0  0  0
    0.4770    0.1709    0.5292 C   0  0  0  0  0  0  0  0  0  0  0  0
    3.6784   -2.0562    0.6614 C   0  0  0  0  0  0  0  0  0  0  0  0
    0.5809    2.6532    0.6739 C   0  0  2  0  0  0  0  0  0  0  0  0
   -0.5913    3.5870    0.3520 C   0  0  0  0  0  0  0  0  0  0  0  0
    4.4711   -0.9238    0.1673 C   0  0  0  0  0  0  0  0  0  0  0  0
   -1.9331    2.9659    0.6556 C   0  0  0  0  0  0  0  0  0  0  0  0
    1.9024    3.3204    0.3209 C   0  0  0  0  0  0  0  0  0  0  0  0
   -3.0098    2.7871   -0.2575 C   0  0  0  0  0  0  0  0  0  0  0  0
   -2.3316    2.4695    1.8753 C   0  0  0  0  0  0  0  0  0  0  0  0
    5.3209   -1.0917   -0.9260 C   0  0  0  0  0  0  0  0  0  0  0  0
    4.3744    0.3202    0.7910 C   0  0  0  0  0  0  0  0  0  0  0  0
   -4.0485    2.1764    0.4484 C   0  0  0  0  0  0  0  0  0  0  0  0
   -3.2009    3.0873   -1.6208 C   0  0  0  0  0  0  0  0  0  0  0  0
    6.0741   -0.0156   -1.3957 C   0  0  0  0  0  0  0  0  0  0  0  0
    5.1277    1.3962    0.3215 C   0  0  0  0  0  0  0  0  0  0  0  0
   -5.2738    1.8493   -0.1434 C   0  0  0  0  0  0  0  0  0  0  0  0
    5.9774    1.2284   -0.7720 C   0  0  0  0  0  0  0  0  0  0  0  0
   -4.4213    2.7659   -2.2260 C   0  0  0  0  0  0  0  0  0  0  0  0
   -5.4404    2.1564   -1.4968 C   0  0  0  0  0  0  0  0  0  0  0  0
   -2.1765   -3.1035    1.6986 H   0  0  0  0  0  0  0  0  0  0  0  0
   -0.1383   -0.5672   -1.3621 H   0  0  0  0  0  0  0  0  0  0  0  0
   -0.3416   -3.7520    1.3490 H   0  0  0  0  0  0  0  0  0  0  0  0
    0.3816   -2.3239    2.0555 H   0  0  0  0  0  0  0  0  0  0  0  0
   -3.9744   -1.4030    1.3352 H   0  0  0  0  0  0  0  0  0  0  0  0
   -4.4890   -3.0274    1.7771 H   0  0  0  0  0  0  0  0  0  0  0  0
   -3.0373   -5.0981    0.7201 H   0  0  0  0  0  0  0  0  0  0  0  0
   -1.6996   -4.6643   -0.3388 H   0  0  0  0  0  0  0  0  0  0  0  0
    1.6761   -2.0603   -1.7958 H   0  0  0  0  0  0  0  0  0  0  0  0
    2.4010   -0.5739   -1.1915 H   0  0  0  0  0  0  0  0  0  0  0  0
    2.1055   -3.9446    1.3547 H   0  0  0  0  0  0  0  0  0  0  0  0
    1.4304   -4.0314   -0.2769 H   0  0  0  0  0  0  0  0  0  0  0  0
   -4.6290   -1.7843   -1.0362 H   0  0  0  0  0  0  0  0  0  0  0  0
   -5.9351   -2.2170    0.0353 H   0  0  0  0  0  0  0  0  0  0  0  0
   -3.7308   -5.3446   -1.5921 H   0  0  0  0  0  0  0  0  0  0  0  0
   -3.2355   -3.7085   -2.0051 H   0  0  0  0  0  0  0  0  0  0  0  0
   -5.5789   -3.8587   -1.6373 H   0  0  0  0  0  0  0  0  0  0  0  0
    0.5388    1.4792   -1.0861 H   0  0  0  0  0  0  0  0  0  0  0  0
    0.5843    2.4168    1.7450 H   0  0  0  0  0  0  0  0  0  0  0  0
   -0.4982    4.5150    0.9309 H   0  0  0  0  0  0  0  0  0  0  0  0
   -0.5477    3.8826   -0.7038 H   0  0  0  0  0  0  0  0  0  0  0  0
   -1.8238    2.4102    2.8279 H   0  0  0  0  0  0  0  0  0  0  0  0
    5.4035   -2.0563   -1.4198 H   0  0  0  0  0  0  0  0  0  0  0  0
    3.7148    0.4625    1.6431 H   0  0  0  0  0  0  0  0  0  0  0  0
   -4.1508    1.5725    2.4811 H   0  0  0  0  0  0  0  0  0  0  0  0
   -2.4187    3.5614   -2.2065 H   0  0  0  0  0  0  0  0  0  0  0  0
    3.3083    4.5441    1.2652 H   0  0  0  0  0  0  0  0  0  0  0  0
    1.9839    4.0951    2.2784 H   0  0  0  0  0  0  0  0  0  0  0  0
    5.0554    2.3641    0.8083 H   0  0  0  0  0  0  0  0  0  0  0  0
   -6.0670    1.3732    0.4231 H   0  0  0  0  0  0  0  0  0  0  0  0
    6.5640    2.0660   -1.1375 H   0  0  0  0  0  0  0  0  0  0  0  0
   -4.5743    2.9945   -3.2774 H   0  0  0  0  0  0  0  0  0  0  0  0
   -6.3799    1.9146   -1.9871 H   0  0  0  0  0  0  0  0  0  0  0  0
  1 35  1  0  0  0  0
  2 18  2  0  0  0  0
  3 22  2  0  0  0  0
  4 23  2  0  0  0  0
  5 28  2  0  0  0  0
  6 13  1  0  0  0  0
  6 16  1  0  0  0  0
  6 18  1  0  0  0  0
  7 17  1  0  0  0  0
  7 19  1  0  0  0  0
  7 23  1  0  0  0  0
  8 20  1  0  0  0  0
  8 21  1  0  0  0  0
  8 57  1  0  0  0  0
  9 22  1  0  0  0  0
  9 24  1  0  0  0  0
  9 58  1  0  0  0  0
 10 30  1  0  0  0  0
 10 33  1  0  0  0  0
 10 65  1  0  0  0  0
 11 28  1  0  0  0  0
 11 67  1  0  0  0  0
 11 68  1  0  0  0  0
 12 14  1  0  0  0  0
 12 15  1  0  0  0  0
 12 18  1  0  0  0  0
 12 41  1  0  0  0  0
 13 17  1  0  0  0  0
 13 22  1  0  0  0  0
 13 42  1  0  0  0  0
 14 20  1  0  0  0  0
 14 45  1  0  0  0  0
 14 46  1  0  0  0  0
 15 21  1  0  0  0  0
 15 47  1  0  0  0  0
 15 48  1  0  0  0  0
 16 19  1  0  0  0  0
 16 43  1  0  0  0  0
 16 44  1  0  0  0  0
 17 49  1  0  0  0  0
 17 50  1  0  0  0  0
 19 51  1  0  0  0  0
 19 52  1  0  0  0  0
 20 53  1  0  0  0  0
 20 54  1  0  0  0  0
 21 55  1  0  0  0  0
 21 56  1  0  0  0  0
 23 26  1  0  0  0  0
 24 25  1  0  0  0  0
 24 28  1  0  0  0  0
 24 59  1  0  0  0  0
 25 27  1  0  0  0  0
 25 60  1  0  0  0  0
 25 61  1  0  0  0  0
 26 31  2  0  0  0  0
 26 32  1  0  0  0  0
 27 29  1  0  0  0  0
 27 30  2  0  0  0  0
 29 33  1  0  0  0  0
 29 34  2  0  0  0  0
 30 62  1  0  0  0  0
 31 35  1  0  0  0  0
 31 63  1  0  0  0  0
 32 36  2  0  0  0  0
 32 64  1  0  0  0  0
 33 37  2  0  0  0  0
 34 39  1  0  0  0  0
 34 66  1  0  0  0  0
 35 38  2  0  0  0  0
 36 38  1  0  0  0  0
 36 69  1  0  0  0  0
 37 40  1  0  0  0  0
 37 70  1  0  0  0  0
 38 71  1  0  0  0  0
 39 40  2  0  0  0  0
 39 72  1  0  0  0  0
 40 73  1  0  0  0  0
M  END
> <PUBCHEM_COMPOUND_CID>
45361713

> <PUBCHEM_CONFORMER_RMSD>
1.4

> <PUBCHEM_CONFORMER_DIVERSEORDER>
1
16
38
100
92
156
164
78
41
137
142
114
72
20
133
101
127
51
79
167
90
108
144
34
60
160
43
153
152
155
159
40
62
5
134
83
67
158
55
58
94
30
121
80
143
132
136
64
145
22
70
150
28
89
2
147
118
123
138
161
54
69
119
46
74
163
171
128
104
130
106
169
39
135
6
13
120
87
95
14
21
170
151
140
98
77
166
103
85
57
8
162
59
9
63
88
37
129
131
76
115
35
19
18
146
52
11
53
93
91
149
86
33
24
117
141
157
107
36
17
111
112
113
126
56
81
122
15
25
44
110
109
96
97
66
47
154
65
29
42
124
50
26
61
23
68
116
10
49
45
32
102
48
82
105
99
168
148
125
71
165
73
3
27
7
84
75
12
139
31
4

> <PUBCHEM_MMFF94_PARTIAL_CHARGES>
51
1 -0.19
10 0.03
11 -0.8
12 0.06
13 0.36
16 0.3
17 0.3
18 0.57
19 0.3
2 -0.57
20 0.27
21 0.27
22 0.57
23 0.54
24 0.36
25 0.18
26 0.09
27 -0.18
28 0.57
3 -0.57
30 -0.3
31 -0.15
32 -0.15
33 -0.15
34 -0.15
35 0.19
36 -0.15
37 -0.15
38 -0.15
39 -0.15
4 -0.57
40 -0.15
5 -0.57
57 0.36
58 0.37
6 -0.66
62 0.15
63 0.15
64 0.15
65 0.27
66 0.15
67 0.37
68 0.37
69 0.15
7 -0.66
70 0.15
71 0.15
72 0.15
73 0.15
8 -0.9
9 -0.73

> <PUBCHEM_EFFECTIVE_ROTOR_COUNT>
12.4

> <PUBCHEM_PHARMACOPHORE_FEATURES>
15
1 10 cation
1 10 donor
1 11 donor
1 2 acceptor
1 3 acceptor
1 4 acceptor
1 5 acceptor
1 8 cation
1 8 donor
1 9 donor
5 10 27 29 30 33 rings
6 26 31 32 35 36 38 rings
6 29 33 34 37 39 40 rings
6 6 7 13 16 17 19 rings
6 8 12 14 15 20 21 rings

> <PUBCHEM_HEAVY_ATOM_COUNT>
40

> <PUBCHEM_ATOM_DEF_STEREO_COUNT>
2

> <PUBCHEM_ATOM_UDEF_STEREO_COUNT>
0

> <PUBCHEM_BOND_DEF_STEREO_COUNT>
0

> <PUBCHEM_BOND_UDEF_STEREO_COUNT>
0

> <PUBCHEM_ISOTOPIC_ATOM_COUNT>
0

> <PUBCHEM_COMPONENT_COUNT>
1

> <PUBCHEM_CACTVS_TAUTO_COUNT>
4

> <PUBCHEM_CONFORMER_ID>
02B42A3100000001

> <PUBCHEM_MMFF94_ENERGY>
89.3463

> <PUBCHEM_FEATURE_SELFOVERLAP>
76.216

> <PUBCHEM_SHAPE_FINGERPRINT>
10190108 129 18190479322998705715
10581848 31 18339657705964615468
10675989 125 17761492895311040544
1100329 8 18411696548433376265
12788726 201 18334858359442588594
13911987 19 18192434069509710733
14790565 3 18050565145240170165
15001296 14 18120370114656521872
15351339 4 18265892652062567328
15968369 153 17845355765186252336
16112460 7 18270690740702392185
19319366 153 17750797636696898091
20764821 26 18410580599575491945
20775438 99 18056740062734723686
4066623 53 18194392527831808951
463206 1 18341612581630302584
5171179 24 18270677709117319184
6036956 94 17323812531464271460
6669772 16 18269539663676791152

> <PUBCHEM_SHAPE_MULTIPOLES>
762.54
13.35
6.74
1.62
10.99
1.89
0.31
-0.38
5.84
-7.3
-0.28
-0.09
-0.69
0.08

> <PUBCHEM_SHAPE_SELFOVERLAP>
1648.828

> <PUBCHEM_SHAPE_VOLUME>
415.6

> <PUBCHEM_COORDINATE_TYPE>
2
5
10

$$$$
