51136831
  -OEChem-12032416223D

 56 59  0     1  0  0  0  0  0999 V2000
   -3.9370    1.8514    0.2213 O   0  0  0  0  0  0  0  0  0  0  0  0
    6.9403   -2.1933   -0.8210 O   0  0  0  0  0  0  0  0  0  0  0  0
   -4.0265   -1.8005   -0.1806 N   0  0  1  0  0  0  0  0  0  0  0  0
    2.8958    0.7339   -0.0103 N   0  0  0  0  0  0  0  0  0  0  0  0
   -2.1574    0.4913    0.2258 N   0  0  0  0  0  0  0  0  0  0  0  0
    5.0236   -1.2270    0.0694 N   0  0  0  0  0  0  0  0  0  0  0  0
   -2.8128    2.6808    0.1212 N   0  0  0  0  0  0  0  0  0  0  0  0
    2.2477    3.0020   -0.1217 N   0  0  0  0  0  0  0  0  0  0  0  0
   -4.4956   -0.5220    0.3902 C   0  0  1  0  0  0  0  0  0  0  0  0
   -4.8548   -0.8540    1.8502 C   0  0  0  0  0  0  0  0  0  0  0  0
   -4.7061   -2.8602    0.5648 C   0  0  0  0  0  0  0  0  0  0  0  0
   -4.6136   -2.3504    1.9889 C   0  0  0  0  0  0  0  0  0  0  0  0
   -4.2548   -1.9069   -1.6159 C   0  0  0  0  0  0  0  0  0  0  0  0
   -3.4625    0.5794    0.2782 C   0  0  0  0  0  0  0  0  0  0  0  0
   -3.5541   -0.7543   -2.3283 C   0  0  0  0  0  0  0  0  0  0  0  0
   -3.7572   -3.2540   -2.1323 C   0  0  0  0  0  0  0  0  0  0  0  0
    4.1475    0.9417   -0.7440 C   0  0  0  0  0  0  0  0  0  0  0  0
    2.7152   -0.5315    0.7054 C   0  0  0  0  0  0  0  0  0  0  0  0
    4.7879   -0.3959   -1.1084 C   0  0  0  0  0  0  0  0  0  0  0  0
    4.0612   -1.0920    1.1650 C   0  0  0  0  0  0  0  0  0  0  0  0
   -1.8029    1.8056    0.1298 C   0  0  0  0  0  0  0  0  0  0  0  0
    1.8935    1.7007   -0.0264 C   0  0  0  0  0  0  0  0  0  0  0  0
   -0.4284    2.2116    0.0456 C   0  0  0  0  0  0  0  0  0  0  0  0
    0.5833    1.2577    0.0589 C   0  0  0  0  0  0  0  0  0  0  0  0
    6.1289   -2.0783    0.1005 C   0  0  0  0  0  0  0  0  0  0  0  0
   -0.1036    3.5601   -0.0511 C   0  0  0  0  0  0  0  0  0  0  0  0
    1.2371    3.9001   -0.1316 C   0  0  0  0  0  0  0  0  0  0  0  0
    6.3052   -2.8959    1.3565 C   0  0  0  0  0  0  0  0  0  0  0  0
   -5.4177   -0.1901   -0.1083 H   0  0  0  0  0  0  0  0  0  0  0  0
   -4.2686   -0.2955    2.5881 H   0  0  0  0  0  0  0  0  0  0  0  0
   -5.9149   -0.6355    2.0280 H   0  0  0  0  0  0  0  0  0  0  0  0
   -4.2082   -3.8308    0.4807 H   0  0  0  0  0  0  0  0  0  0  0  0
   -5.7575   -2.9654    0.2683 H   0  0  0  0  0  0  0  0  0  0  0  0
   -3.6107   -2.5298    2.3959 H   0  0  0  0  0  0  0  0  0  0  0  0
   -5.3406   -2.8265    2.6534 H   0  0  0  0  0  0  0  0  0  0  0  0
   -5.3273   -1.8388   -1.8443 H   0  0  0  0  0  0  0  0  0  0  0  0
   -3.6006   -0.9140   -3.4132 H   0  0  0  0  0  0  0  0  0  0  0  0
   -4.0393    0.2116   -2.1649 H   0  0  0  0  0  0  0  0  0  0  0  0
   -2.4898   -0.6948   -2.0782 H   0  0  0  0  0  0  0  0  0  0  0  0
   -3.8144   -3.2900   -3.2263 H   0  0  0  0  0  0  0  0  0  0  0  0
   -4.3603   -4.0893   -1.7623 H   0  0  0  0  0  0  0  0  0  0  0  0
   -2.7122   -3.4314   -1.8534 H   0  0  0  0  0  0  0  0  0  0  0  0
    4.8322    1.5324   -0.1235 H   0  0  0  0  0  0  0  0  0  0  0  0
    3.9627    1.5017   -1.6687 H   0  0  0  0  0  0  0  0  0  0  0  0
    2.0909   -0.3980    1.5975 H   0  0  0  0  0  0  0  0  0  0  0  0
    2.2203   -1.2550    0.0457 H   0  0  0  0  0  0  0  0  0  0  0  0
    5.7274   -0.2283   -1.6455 H   0  0  0  0  0  0  0  0  0  0  0  0
    4.1288   -0.9677   -1.7733 H   0  0  0  0  0  0  0  0  0  0  0  0
    3.9060   -2.0602    1.6498 H   0  0  0  0  0  0  0  0  0  0  0  0
    4.5180   -0.4211    1.9028 H   0  0  0  0  0  0  0  0  0  0  0  0
    0.3388    0.2017    0.1112 H   0  0  0  0  0  0  0  0  0  0  0  0
   -0.8494    4.3480   -0.0664 H   0  0  0  0  0  0  0  0  0  0  0  0
    1.5436    4.9381   -0.2088 H   0  0  0  0  0  0  0  0  0  0  0  0
    7.2791   -3.3944    1.3310 H   0  0  0  0  0  0  0  0  0  0  0  0
    6.2766   -2.2559    2.2421 H   0  0  0  0  0  0  0  0  0  0  0  0
    5.5266   -3.6609    1.4153 H   0  0  0  0  0  0  0  0  0  0  0  0
  1  7  1  0  0  0  0
  1 14  1  0  0  0  0
  2 25  2  0  0  0  0
  3  9  1  0  0  0  0
  3 11  1  0  0  0  0
  3 13  1  0  0  0  0
  4 17  1  0  0  0  0
  4 18  1  0  0  0  0
  4 22  1  0  0  0  0
  5 14  2  0  0  0  0
  5 21  1  0  0  0  0
  6 19  1  0  0  0  0
  6 20  1  0  0  0  0
  6 25  1  0  0  0  0
  7 21  2  0  0  0  0
  8 22  2  0  0  0  0
  8 27  1  0  0  0  0
  9 10  1  0  0  0  0
  9 14  1  0  0  0  0
  9 29  1  0  0  0  0
 10 12  1  0  0  0  0
 10 30  1  0  0  0  0
 10 31  1  0  0  0  0
 11 12  1  0  0  0  0
 11 32  1  0  0  0  0
 11 33  1  0  0  0  0
 12 34  1  0  0  0  0
 12 35  1  0  0  0  0
 13 15  1  0  0  0  0
 13 16  1  0  0  0  0
 13 36  1  0  0  0  0
 15 37  1  0  0  0  0
 15 38  1  0  0  0  0
 15 39  1  0  0  0  0
 16 40  1  0  0  0  0
 16 41  1  0  0  0  0
 16 42  1  0  0  0  0
 17 19  1  0  0  0  0
 17 43  1  0  0  0  0
 17 44  1  0  0  0  0
 18 20  1  0  0  0  0
 18 45  1  0  0  0  0
 18 46  1  0  0  0  0
 19 47  1  0  0  0  0
 19 48  1  0  0  0  0
 20 49  1  0  0  0  0
 20 50  1  0  0  0  0
 21 23  1  0  0  0  0
 22 24  1  0  0  0  0
 23 24  2  0  0  0  0
 23 26  1  0  0  0  0
 24 51  1  0  0  0  0
 25 28  1  0  0  0  0
 26 27  2  0  0  0  0
 26 52  1  0  0  0  0
 27 53  1  0  0  0  0
 28 54  1  0  0  0  0
 28 55  1  0  0  0  0
 28 56  1  0  0  0  0
M  END
> <PUBCHEM_COMPOUND_CID>
51136831

> <PUBCHEM_CONFORMER_RMSD>
1

> <PUBCHEM_CONFORMER_DIVERSEORDER>
3
51
97
32
58
103
40
100
73
84
60
30
34
92
94
104
86
2
20
44
57
116
39
88
65
91
25
43
77
42
99
62
59
55
101
15
61
48
89
102
64
35
113
13
107
38
47
16
17
52
37
66
95
87
53
18
79
50
80
82
119
19
11
67
9
90
29
46
108
41
111
72
10
120
105
114
81
70
93
23
12
78
85
71
26
83
1
7
69
76
106
68
117
24
118
22
109
54
49
75
112
14
4
74
115
28
56
33
98
27
45
96
21
121
63
31
36
110
8
6
5

> <PUBCHEM_MMFF94_PARTIAL_CHARGES>
27
1 -0.02
11 0.27
13 0.27
14 0.3
17 0.37
18 0.37
19 0.3
2 -0.57
20 0.3
21 0.46
22 0.41
23 0.05
24 -0.15
25 0.57
26 -0.15
27 0.16
28 0.06
3 -0.81
4 -0.84
5 -0.57
51 0.15
52 0.15
53 0.15
6 -0.66
7 -0.41
8 -0.62
9 0.45

> <PUBCHEM_EFFECTIVE_ROTOR_COUNT>
7.2

> <PUBCHEM_PHARMACOPHORE_FEATURES>
9
1 2 acceptor
1 3 cation
3 13 15 16 hydrophobe
3 4 8 22 cation
3 5 7 21 cation
5 1 5 7 14 21 rings
5 3 9 10 11 12 rings
6 4 6 17 18 19 20 rings
6 8 22 23 24 26 27 rings

> <PUBCHEM_HEAVY_ATOM_COUNT>
28

> <PUBCHEM_ATOM_DEF_STEREO_COUNT>
1

> <PUBCHEM_ATOM_UDEF_STEREO_COUNT>
0

> <PUBCHEM_BOND_DEF_STEREO_COUNT>
0

> <PUBCHEM_BOND_UDEF_STEREO_COUNT>
0

> <PUBCHEM_ISOTOPIC_ATOM_COUNT>
0

> <PUBCHEM_COMPONENT_COUNT>
1

> <PUBCHEM_CACTVS_TAUTO_COUNT>
1

> <PUBCHEM_CONFORMER_ID>
030C493F00000003

> <PUBCHEM_MMFF94_ENERGY>
67.4301

> <PUBCHEM_FEATURE_SELFOVERLAP>
45.672

> <PUBCHEM_SHAPE_FINGERPRINT>
10074138 170 17201095685598372289
10622 236 18411130359573427926
10928967 22 18341336690058050135
11135926 11 18048596216273205668
11200772 48 18046606942283134389
11315621 246 18120665626356242300
117089 54 18336561472472965714
12107183 9 18269574805346659761
12166972 35 17603877706064145558
12174731 88 18339074891523770962
12422481 6 17560814216075175975
12633257 1 16772970240882977233
13583140 156 12606035546415166885
1361 87 17967817210173036563
13690498 29 18040721324826413901
13782708 43 17988351573907204002
14114206 34 17603858958147023257
14117953 113 18271802372722200119
14168556 18 18411131468956852704
14279260 333 18114742608531245770
14429380 30 18335701629105385482
14480069 147 18114470045030664931
14739800 52 13580468402390164723
14767858 380 18116450300644756124
14844126 61 18342173311443672121
15163728 17 10953736651749718464
15274700 232 16755789985238025294
15467298 65 17681267760147534850
15537594 2 17982747560360531981
15684393 108 17749690544309412870
15728490 51 18410854348987257094
17138139 8 17749109968200118890
17492 89 18337674247291209969
18927931 339 18412265008598002631
19246450 95 18051997843836821785
19841028 212 18198619037808224903
20554085 129 15840177475839392947
20580484 66 17973718079370400338
20775438 99 17761478588511630115
20775530 9 18260824895305567960
208703 8 18409728490796380139
21033650 10 15430301526156007117
21401589 2 10663817507426264405
21585480 29 17916281975240452766
21796203 349 18123786211405554266
235170 7 16370997581238942407
23559900 14 18336822082846510521
312425 83 13768466640610742227
314194 84 18339364183551482680
3383291 50 18130782323122202751
397830 11 17845068754956761146
44062 13 18335700512155581549
44880168 125 17703238312513349718
46194498 28 16372138921321203453
5104073 3 18272939310347548448
5486654 36 18408612444008374705
559249 180 18339078182138346833
6034566 193 9511461160465123567
6431902 208 18408039602645141034
6636798 310 16558454413881155223
7970288 3 18408887317530777890
88748 71 18335707182102473233

> <PUBCHEM_SHAPE_MULTIPOLES>
534.6
15.64
4.74
1.62
15.11
1.98
-0.4
-18.45
1.1
0.61
-0.1
-2.17
-1.65
-1.36

> <PUBCHEM_SHAPE_SELFOVERLAP>
1135.437

> <PUBCHEM_SHAPE_VOLUME>
299.9

> <PUBCHEM_COORDINATE_TYPE>
2
5
10

$$$$
