28960679
  -OEChem-12032416213D

 50 53  0     1  0  0  0  0  0999 V2000
    7.2792    2.0465   -0.3604 F   0  0  0  0  0  0  0  0  0  0  0  0
    5.3510    1.7575   -1.3475 F   0  0  0  0  0  0  0  0  0  0  0  0
    5.4862    2.9351    0.5180 F   0  0  0  0  0  0  0  0  0  0  0  0
   -0.1915   -3.9325   -0.6612 O   0  0  0  0  0  0  0  0  0  0  0  0
   -4.7396    1.1643   -1.8286 O   0  0  0  0  0  0  0  0  0  0  0  0
    5.7821    0.6692    0.6174 O   0  0  0  0  0  0  0  0  0  0  0  0
   -2.9707   -2.6196    1.0621 N   0  0  1  0  0  0  0  0  0  0  0  0
   -3.8111    0.0738   -0.0048 N   0  0  0  0  0  0  0  0  0  0  0  0
   -0.1006   -1.8033    0.0281 N   0  0  0  0  0  0  0  0  0  0  0  0
    1.1678   -3.6004   -0.6007 N   0  0  0  0  0  0  0  0  0  0  0  0
   -4.1685   -1.2651   -0.4094 C   0  0  1  0  0  0  0  0  0  0  0  0
   -2.3786   -2.9211   -0.2553 C   0  0  1  0  0  0  0  0  0  0  0  0
   -3.0525   -1.9249   -1.2193 C   0  0  0  0  0  0  0  0  0  0  0  0
   -4.3433   -2.1792    0.7939 C   0  0  0  0  0  0  0  0  0  0  0  0
   -0.8684   -2.8191   -0.2758 C   0  0  0  0  0  0  0  0  0  0  0  0
   -2.9319   -3.7506    1.9812 C   0  0  0  0  0  0  0  0  0  0  0  0
   -4.1325    1.1904   -0.7613 C   0  0  0  0  0  0  0  0  0  0  0  0
    1.1397   -2.3301   -0.1864 C   0  0  0  0  0  0  0  0  0  0  0  0
   -3.6704    2.4947   -0.2208 C   0  0  0  0  0  0  0  0  0  0  0  0
    2.3316   -1.5597    0.0212 C   0  0  0  0  0  0  0  0  0  0  0  0
   -3.4224    3.5606   -1.0856 C   0  0  0  0  0  0  0  0  0  0  0  0
   -3.4846    2.6530    1.1525 C   0  0  0  0  0  0  0  0  0  0  0  0
    2.2410   -0.2364    0.4534 C   0  0  0  0  0  0  0  0  0  0  0  0
    3.5816   -2.1336   -0.2104 C   0  0  0  0  0  0  0  0  0  0  0  0
   -2.9886    4.7850   -0.5772 C   0  0  0  0  0  0  0  0  0  0  0  0
   -3.0509    3.8774    1.6610 C   0  0  0  0  0  0  0  0  0  0  0  0
   -2.8028    4.9433    0.7960 C   0  0  0  0  0  0  0  0  0  0  0  0
    3.4004    0.5128    0.6536 C   0  0  0  0  0  0  0  0  0  0  0  0
    4.7410   -1.3844   -0.0101 C   0  0  0  0  0  0  0  0  0  0  0  0
    4.6503   -0.0613    0.4218 C   0  0  0  0  0  0  0  0  0  0  0  0
    5.9573    1.8578   -0.1454 C   0  0  0  0  0  0  0  0  0  0  0  0
   -5.0919   -1.2132   -0.9971 H   0  0  0  0  0  0  0  0  0  0  0  0
   -2.6662   -3.9338   -0.5730 H   0  0  0  0  0  0  0  0  0  0  0  0
   -2.3576   -1.1890   -1.6407 H   0  0  0  0  0  0  0  0  0  0  0  0
   -3.4894   -2.4823   -2.0575 H   0  0  0  0  0  0  0  0  0  0  0  0
   -4.7817   -1.6651    1.6560 H   0  0  0  0  0  0  0  0  0  0  0  0
   -4.9846   -3.0287    0.5250 H   0  0  0  0  0  0  0  0  0  0  0  0
   -3.2125    0.1618    0.8098 H   0  0  0  0  0  0  0  0  0  0  0  0
   -1.8978   -4.0460    2.1885 H   0  0  0  0  0  0  0  0  0  0  0  0
   -3.4672   -4.6238    1.5914 H   0  0  0  0  0  0  0  0  0  0  0  0
   -3.3804   -3.4748    2.9420 H   0  0  0  0  0  0  0  0  0  0  0  0
   -3.5570    3.4558   -2.1590 H   0  0  0  0  0  0  0  0  0  0  0  0
   -3.6955    1.8590    1.8628 H   0  0  0  0  0  0  0  0  0  0  0  0
    1.2818    0.2388    0.6438 H   0  0  0  0  0  0  0  0  0  0  0  0
    3.6917   -3.1613   -0.5476 H   0  0  0  0  0  0  0  0  0  0  0  0
   -2.7948    5.6149   -1.2505 H   0  0  0  0  0  0  0  0  0  0  0  0
   -2.9128    4.0035    2.7309 H   0  0  0  0  0  0  0  0  0  0  0  0
    3.3159    1.5402    0.9968 H   0  0  0  0  0  0  0  0  0  0  0  0
    5.7122   -1.8363   -0.1925 H   0  0  0  0  0  0  0  0  0  0  0  0
   -2.4664    5.8969    1.1922 H   0  0  0  0  0  0  0  0  0  0  0  0
  1 31  1  0  0  0  0
  2 31  1  0  0  0  0
  3 31  1  0  0  0  0
  4 10  1  0  0  0  0
  4 15  1  0  0  0  0
  5 17  2  0  0  0  0
  6 30  1  0  0  0  0
  6 31  1  0  0  0  0
  7 12  1  0  0  0  0
  7 14  1  0  0  0  0
  7 16  1  0  0  0  0
  8 11  1  0  0  0  0
  8 17  1  0  0  0  0
  8 38  1  0  0  0  0
  9 15  2  0  0  0  0
  9 18  1  0  0  0  0
 10 18  2  0  0  0  0
 11 13  1  0  0  0  0
 11 14  1  0  0  0  0
 11 32  1  0  0  0  0
 12 13  1  0  0  0  0
 12 15  1  0  0  0  0
 12 33  1  0  0  0  0
 13 34  1  0  0  0  0
 13 35  1  0  0  0  0
 14 36  1  0  0  0  0
 14 37  1  0  0  0  0
 16 39  1  0  0  0  0
 16 40  1  0  0  0  0
 16 41  1  0  0  0  0
 17 19  1  0  0  0  0
 18 20  1  0  0  0  0
 19 21  2  0  0  0  0
 19 22  1  0  0  0  0
 20 23  2  0  0  0  0
 20 24  1  0  0  0  0
 21 25  1  0  0  0  0
 21 42  1  0  0  0  0
 22 26  2  0  0  0  0
 22 43  1  0  0  0  0
 23 28  1  0  0  0  0
 23 44  1  0  0  0  0
 24 29  2  0  0  0  0
 24 45  1  0  0  0  0
 25 27  2  0  0  0  0
 25 46  1  0  0  0  0
 26 27  1  0  0  0  0
 26 47  1  0  0  0  0
 27 50  1  0  0  0  0
 28 30  2  0  0  0  0
 28 48  1  0  0  0  0
 29 30  1  0  0  0  0
 29 49  1  0  0  0  0
M  END
> <PUBCHEM_COMPOUND_CID>
28960679

> <PUBCHEM_CONFORMER_RMSD>
1

> <PUBCHEM_CONFORMER_DIVERSEORDER>
1
41
37
20
43
12
45
9
19
32
40
52
46
22
49
17
8
36
11
38
2
47
31
14
10
51
6
30
15
4
28
35
18
23
13
50
53
24
16
34
7
48
3
29
21
39
25
44
42
33
26
5
27

> <PUBCHEM_MMFF94_PARTIAL_CHARGES>
40
1 -0.34
10 -0.41
11 0.3
12 0.45
14 0.27
15 0.3
16 0.27
17 0.54
18 0.46
19 0.09
2 -0.34
20 0.05
21 -0.15
22 -0.15
23 -0.15
24 -0.15
25 -0.15
26 -0.15
27 -0.15
28 -0.15
29 -0.15
3 -0.34
30 0.08
31 1.3
38 0.37
4 -0.02
42 0.15
43 0.15
44 0.15
45 0.15
46 0.15
47 0.15
48 0.15
49 0.15
5 -0.57
50 0.15
6 -0.36
7 -0.81
8 -0.73
9 -0.57

> <PUBCHEM_EFFECTIVE_ROTOR_COUNT>
8

> <PUBCHEM_PHARMACOPHORE_FEATURES>
9
1 5 acceptor
1 6 acceptor
1 7 cation
1 8 donor
3 9 10 18 cation
5 4 9 10 15 18 rings
5 7 11 12 13 14 rings
6 19 21 22 25 26 27 rings
6 20 23 24 28 29 30 rings

> <PUBCHEM_HEAVY_ATOM_COUNT>
31

> <PUBCHEM_ATOM_DEF_STEREO_COUNT>
2

> <PUBCHEM_ATOM_UDEF_STEREO_COUNT>
0

> <PUBCHEM_BOND_DEF_STEREO_COUNT>
0

> <PUBCHEM_BOND_UDEF_STEREO_COUNT>
0

> <PUBCHEM_ISOTOPIC_ATOM_COUNT>
0

> <PUBCHEM_COMPONENT_COUNT>
1

> <PUBCHEM_CACTVS_TAUTO_COUNT>
2

> <PUBCHEM_CONFORMER_ID>
01B9E7A700000001

> <PUBCHEM_MMFF94_ENERGY>
76.7743

> <PUBCHEM_FEATURE_SELFOVERLAP>
45.672

> <PUBCHEM_SHAPE_FINGERPRINT>
100830 39 18410291454388603072
10928967 22 8932705783282003593
10951579 204 18339941372319030036
11059048 146 18127137372339049832
11408170 253 18048330117844300684
12107183 9 18045768002116098354
13761468 95 17845952778472401138
13947920 24 18341610451278460401
14251764 38 18340206284846213762
14251764 75 17982457001428159833
14347329 18 18341324531432442026
14363568 33 17399528204406517081
14790565 3 18411418389229388382
14932702 115 17988355979926387528
15142526 21 17759246198609060451
15274700 147 17467097545068871252
15320291 9 18340199679361235528
15320467 1 18411697686210066496
15347590 135 17968384558352363195
155225 5 18412261744507558872
16067690 210 18117254042699979912
16708801 149 18267283362404362200
16728433 281 18340223938149121324
16992787 43 18340195303781156325
18603816 31 11671522053651578140
19611394 137 17610628892211733171
20771845 165 18201451306493595062
21033648 144 17701530938796669458
21716022 299 16117652725026067279
21859007 373 18057873827465039840
22956985 138 16672763160647246563
23398203 216 18197234558967773209
4144715 1 18261119582330389554
4173938 77 16615624251111997009
437795 83 18341610469086433972
4487111 67 18412539920753902176
4616759 239 17533205608509772568
4756261 7 18055664801262642569
48014 12 18114752632689229796
50150288 127 16557643923550712497
5047190 92 18195530286376048537
550186 7 18272939348906581038
56633871 153 9006185003390386661
6036956 94 18408886248147582237
6608658 132 18127961099906153239
7288768 16 18043537101770945907

> <PUBCHEM_SHAPE_MULTIPOLES>
578.61
14.38
7.25
1.28
22.23
3.75
0.19
12.87
-0.9
-7.24
1.05
-1.48
0.09
0.44

> <PUBCHEM_SHAPE_SELFOVERLAP>
1257.941

> <PUBCHEM_SHAPE_VOLUME>
317.9

> <PUBCHEM_COORDINATE_TYPE>
2
5
10

$$$$
