56775407
  -OEChem-12032416323D

 41 43  0     0  0  0  0  0  0999 V2000
   -2.2334    2.4574   -0.6184 F   0  0  0  0  0  0  0  0  0  0  0  0
    0.1070   -3.6263    0.7822 O   0  0  0  0  0  0  0  0  0  0  0  0
    2.7445    1.6992   -0.6645 O   0  0  0  0  0  0  0  0  0  0  0  0
    4.7999    0.5467    2.2337 O   0  0  0  0  0  0  0  0  0  0  0  0
   -0.7714   -0.7677    0.2827 N   0  0  0  0  0  0  0  0  0  0  0  0
    1.5847    1.0431   -1.0590 N   0  0  0  0  0  0  0  0  0  0  0  0
    0.1316   -1.7747   -0.2795 C   0  0  0  0  0  0  0  0  0  0  0  0
    0.9099   -2.4262    0.8578 C   0  0  0  0  0  0  0  0  0  0  0  0
   -0.6076   -3.1055   -0.3618 C   0  0  0  0  0  0  0  0  0  0  0  0
    0.8768   -1.2836   -1.4827 C   0  0  0  0  0  0  0  0  0  0  0  0
    1.9134   -0.2515   -1.0895 C   0  0  0  0  0  0  0  0  0  0  0  0
   -1.6913   -0.3117   -0.7606 C   0  0  0  0  0  0  0  0  0  0  0  0
    3.2538   -0.4706   -0.7276 C   0  0  0  0  0  0  0  0  0  0  0  0
   -2.9598    0.2366   -0.1990 C   0  0  0  0  0  0  0  0  0  0  0  0
    3.7313    0.7872   -0.4703 C   0  0  0  0  0  0  0  0  0  0  0  0
    5.0349    1.3125   -0.0472 C   0  0  0  0  0  0  0  0  0  0  0  0
   -3.1681    1.6151   -0.1563 C   0  0  0  0  0  0  0  0  0  0  0  0
   -3.9386   -0.6320    0.2839 C   0  0  0  0  0  0  0  0  0  0  0  0
    5.0973    1.6920    1.4451 C   0  0  0  0  0  0  0  0  0  0  0  0
   -4.3551    2.1251    0.3692 C   0  0  0  0  0  0  0  0  0  0  0  0
   -5.1258   -0.1219    0.8096 C   0  0  0  0  0  0  0  0  0  0  0  0
   -5.3341    1.2567    0.8522 C   0  0  0  0  0  0  0  0  0  0  0  0
    1.9576   -2.6698    0.6561 H   0  0  0  0  0  0  0  0  0  0  0  0
    0.8437   -1.9612    1.8472 H   0  0  0  0  0  0  0  0  0  0  0  0
   -1.6875   -3.1154   -0.1838 H   0  0  0  0  0  0  0  0  0  0  0  0
   -0.3973   -3.7075   -1.2526 H   0  0  0  0  0  0  0  0  0  0  0  0
    0.2418   -0.9020   -2.2892 H   0  0  0  0  0  0  0  0  0  0  0  0
    1.4223   -2.1209   -1.9414 H   0  0  0  0  0  0  0  0  0  0  0  0
   -0.3074    0.0367    0.7037 H   0  0  0  0  0  0  0  0  0  0  0  0
   -1.2118    0.4555   -1.3800 H   0  0  0  0  0  0  0  0  0  0  0  0
   -1.9753   -1.1154   -1.4538 H   0  0  0  0  0  0  0  0  0  0  0  0
    3.7957   -1.4026   -0.6639 H   0  0  0  0  0  0  0  0  0  0  0  0
    5.2958    2.1902   -0.6497 H   0  0  0  0  0  0  0  0  0  0  0  0
    5.8001    0.5511   -0.2446 H   0  0  0  0  0  0  0  0  0  0  0  0
   -3.7903   -1.7081    0.2559 H   0  0  0  0  0  0  0  0  0  0  0  0
    4.3674    2.4740    1.6789 H   0  0  0  0  0  0  0  0  0  0  0  0
    6.0996    2.0478    1.7028 H   0  0  0  0  0  0  0  0  0  0  0  0
   -4.5171    3.1984    0.4022 H   0  0  0  0  0  0  0  0  0  0  0  0
   -5.8880   -0.7981    1.1855 H   0  0  0  0  0  0  0  0  0  0  0  0
   -6.2584    1.6539    1.2614 H   0  0  0  0  0  0  0  0  0  0  0  0
    4.8506    0.8214    3.1651 H   0  0  0  0  0  0  0  0  0  0  0  0
  1 17  1  0  0  0  0
  2  8  1  0  0  0  0
  2  9  1  0  0  0  0
  3  6  1  0  0  0  0
  3 15  1  0  0  0  0
  4 19  1  0  0  0  0
  4 41  1  0  0  0  0
  5  7  1  0  0  0  0
  5 12  1  0  0  0  0
  5 29  1  0  0  0  0
  6 11  2  0  0  0  0
  7  8  1  0  0  0  0
  7  9  1  0  0  0  0
  7 10  1  0  0  0  0
  8 23  1  0  0  0  0
  8 24  1  0  0  0  0
  9 25  1  0  0  0  0
  9 26  1  0  0  0  0
 10 11  1  0  0  0  0
 10 27  1  0  0  0  0
 10 28  1  0  0  0  0
 11 13  1  0  0  0  0
 12 14  1  0  0  0  0
 12 30  1  0  0  0  0
 12 31  1  0  0  0  0
 13 15  2  0  0  0  0
 13 32  1  0  0  0  0
 14 17  1  0  0  0  0
 14 18  2  0  0  0  0
 15 16  1  0  0  0  0
 16 19  1  0  0  0  0
 16 33  1  0  0  0  0
 16 34  1  0  0  0  0
 17 20  2  0  0  0  0
 18 21  1  0  0  0  0
 18 35  1  0  0  0  0
 19 36  1  0  0  0  0
 19 37  1  0  0  0  0
 20 22  1  0  0  0  0
 20 38  1  0  0  0  0
 21 22  2  0  0  0  0
 21 39  1  0  0  0  0
 22 40  1  0  0  0  0
M  END
> <PUBCHEM_COMPOUND_CID>
56775407

> <PUBCHEM_CONFORMER_RMSD>
1

> <PUBCHEM_CONFORMER_DIVERSEORDER>
1
56
37
82
96
120
90
76
10
134
125
61
34
22
127
11
108
110
62
115
51
122
112
41
106
69
58
60
23
100
131
88
40
95
118
83
64
50
8
103
107
29
71
99
45
92
31
74
84
21
72
24
25
77
123
105
9
65
126
17
102
43
129
91
16
19
114
133
70
89
94
33
54
53
38
66
81
80
73
98
7
135
121
28
20
119
87
12
36
113
47
132
130
79
35
124
117
128
63
32
39
111
109
78
30
67
52
27
18
49
85
15
93
116
42
55
97
57
5
86
59
6
75
44
3
68
13
4
26
2
101
46
48
14
104

> <PUBCHEM_MMFF94_PARTIAL_CHARGES>
29
1 -0.19
10 0.18
11 0.11
12 0.41
13 -0.15
14 -0.14
15 -0.04
16 0.18
17 0.19
18 -0.15
19 0.28
2 -0.52
20 -0.15
21 -0.15
22 -0.15
29 0.36
3 -0.02
32 0.15
35 0.15
38 0.15
39 0.15
4 -0.68
40 0.15
41 0.4
5 -0.84
6 -0.41
7 0.21
8 0.26
9 0.26

> <PUBCHEM_EFFECTIVE_ROTOR_COUNT>
7.8

> <PUBCHEM_PHARMACOPHORE_FEATURES>
9
1 2 acceptor
1 4 acceptor
1 4 donor
1 5 cation
1 5 donor
1 6 acceptor
4 2 7 8 9 rings
5 3 6 11 13 15 rings
6 14 17 18 20 21 22 rings

> <PUBCHEM_HEAVY_ATOM_COUNT>
22

> <PUBCHEM_ATOM_DEF_STEREO_COUNT>
0

> <PUBCHEM_ATOM_UDEF_STEREO_COUNT>
0

> <PUBCHEM_BOND_DEF_STEREO_COUNT>
0

> <PUBCHEM_BOND_UDEF_STEREO_COUNT>
0

> <PUBCHEM_ISOTOPIC_ATOM_COUNT>
0

> <PUBCHEM_COMPONENT_COUNT>
1

> <PUBCHEM_CACTVS_TAUTO_COUNT>
1

> <PUBCHEM_CONFORMER_ID>
036252EF00000001

> <PUBCHEM_MMFF94_ENERGY>
43.0128

> <PUBCHEM_FEATURE_SELFOVERLAP>
45.671

> <PUBCHEM_SHAPE_FINGERPRINT>
10042902 136 11746944178428309960
10074138 170 18119803861747149827
10692045 39 18342166719033318034
11725454 13 17846211194144252558
12403259 415 18272378559369435100
12422481 6 17823963546876428448
12596602 18 17240482550253148208
12633257 1 18262511619584593636
12788726 201 17538863768060616290
12839892 36 18187365450007655995
12892183 10 16588295077864666372
12925494 130 18050007688935757145
13583140 156 16516230942280109053
13955234 65 18124046628601522811
14178342 30 17895495669288703823
14251764 30 12324233954299759472
14251764 38 17699272580378104072
14739800 52 18200586982831748297
14951699 99 18125149683941432256
14955137 171 17905044755534894878
15210252 30 12319731466999911290
1813 80 8430315749102295474
193927 3 11674881069546891341
20567600 254 18410569583084493989
21033648 29 18341897411297750696
212916 134 18340196475441505914
21401589 2 18201717409312081464
21452121 103 18341052912983870366
21524375 3 18412270548884060695
21792934 111 17969790666832356537
21859007 373 16373812091026367165
23559900 14 17904482905482841883
2838139 119 17060046073875236328
2916195 48 18059853999564764952
392239 28 18191882308563001291
427121 178 18412547596049909326
4463277 69 11314313857863612234
474 4 18334588931685190397
5104073 3 18117572738754684441
5352402 22 14924216106652231520
58807428 26 18260827094445043242
59755656 520 18409450306122983486
6913067 236 18040150717547151581
7364860 26 18120383051319901023
7808743 9 18265901444050564988
79837 15 18260834851061619531
960060 61 11455890260811559056
9862522 239 18041540473794517652
9981440 41 18334017194403060627

> <PUBCHEM_SHAPE_MULTIPOLES>
417.91
11.41
3.15
1.32
0.24
2.19
0.37
-9.65
4.5
0.23
0.52
-1.46
-0.07
0.56

> <PUBCHEM_SHAPE_SELFOVERLAP>
887.113

> <PUBCHEM_SHAPE_VOLUME>
235.2

> <PUBCHEM_COORDINATE_TYPE>
2
5
10

$$$$
