75536910
  -OEChem-12032416413D

 52 55  0     1  0  0  0  0  0999 V2000
    4.7345   -1.0235   -1.3316 O   0  0  0  0  0  0  0  0  0  0  0  0
    3.0462    1.3647    0.9004 O   0  0  0  0  0  0  0  0  0  0  0  0
    2.4047   -2.1345   -0.0576 N   0  0  1  0  0  0  0  0  0  0  0  0
    2.6443   -0.9965    0.8294 C   0  0  0  0  0  0  0  0  0  0  0  0
    3.1082    0.2310    0.0342 C   0  0  2  0  0  0  0  0  0  0  0  0
    3.5943   -2.9440   -0.3436 C   0  0  0  0  0  0  0  0  0  0  0  0
    1.3275   -2.9879    0.4451 C   0  0  0  0  0  0  0  0  0  0  0  0
    4.5166    0.1435   -0.5480 C   0  0  0  0  0  0  0  0  0  0  0  0
    4.9068   -2.1865   -0.5307 C   0  0  0  0  0  0  0  0  0  0  0  0
   -0.0207   -2.3339    0.2989 C   0  0  0  0  0  0  0  0  0  0  0  0
   -0.4752   -1.9475   -0.9620 C   0  0  0  0  0  0  0  0  0  0  0  0
   -0.8150   -2.1138    1.4243 C   0  0  0  0  0  0  0  0  0  0  0  0
    2.1743    2.3573    0.5466 C   0  0  0  0  0  0  0  0  0  0  0  0
   -2.5183   -1.1209    0.0277 C   0  0  0  0  0  0  0  0  0  0  0  0
   -1.7239   -1.3410   -1.0976 C   0  0  0  0  0  0  0  0  0  0  0  0
   -2.0638   -1.5073    1.2887 C   0  0  0  0  0  0  0  0  0  0  0  0
   -3.8138   -0.4925   -0.1129 C   0  0  0  0  0  0  0  0  0  0  0  0
    0.8117    2.0811    0.4337 C   0  0  0  0  0  0  0  0  0  0  0  0
    2.6477    3.6456    0.2988 C   0  0  0  0  0  0  0  0  0  0  0  0
   -0.0776    3.0934    0.0730 C   0  0  0  0  0  0  0  0  0  0  0  0
    1.7586    4.6579   -0.0620 C   0  0  0  0  0  0  0  0  0  0  0  0
   -4.0358    0.4252   -1.1397 C   0  0  0  0  0  0  0  0  0  0  0  0
   -4.8407   -0.8042    0.7780 C   0  0  0  0  0  0  0  0  0  0  0  0
    0.3959    4.3819   -0.1749 C   0  0  0  0  0  0  0  0  0  0  0  0
   -5.2849    1.0312   -1.2756 C   0  0  0  0  0  0  0  0  0  0  0  0
   -6.0897   -0.1983    0.6421 C   0  0  0  0  0  0  0  0  0  0  0  0
   -6.3118    0.7194   -0.3846 C   0  0  0  0  0  0  0  0  0  0  0  0
    3.3564   -1.2422    1.6287 H   0  0  0  0  0  0  0  0  0  0  0  0
    1.7347   -0.7062    1.3675 H   0  0  0  0  0  0  0  0  0  0  0  0
    2.4215    0.3517   -0.8176 H   0  0  0  0  0  0  0  0  0  0  0  0
    3.3913   -3.4944   -1.2712 H   0  0  0  0  0  0  0  0  0  0  0  0
    3.7580   -3.6950    0.4407 H   0  0  0  0  0  0  0  0  0  0  0  0
    1.2781   -3.9227   -0.1310 H   0  0  0  0  0  0  0  0  0  0  0  0
    1.5167   -3.2837    1.4858 H   0  0  0  0  0  0  0  0  0  0  0  0
    4.6783    1.0083   -1.2027 H   0  0  0  0  0  0  0  0  0  0  0  0
    5.2801    0.2322    0.2359 H   0  0  0  0  0  0  0  0  0  0  0  0
    5.3695   -1.9439    0.4339 H   0  0  0  0  0  0  0  0  0  0  0  0
    5.6129   -2.8386   -1.0570 H   0  0  0  0  0  0  0  0  0  0  0  0
    0.1280   -2.1228   -1.8490 H   0  0  0  0  0  0  0  0  0  0  0  0
   -0.4700   -2.4026    2.4135 H   0  0  0  0  0  0  0  0  0  0  0  0
   -2.0487   -1.0857   -2.1025 H   0  0  0  0  0  0  0  0  0  0  0  0
   -2.6333   -1.3282    2.1965 H   0  0  0  0  0  0  0  0  0  0  0  0
    0.4211    1.0878    0.6316 H   0  0  0  0  0  0  0  0  0  0  0  0
    3.7082    3.8662    0.3847 H   0  0  0  0  0  0  0  0  0  0  0  0
   -1.1388    2.8784   -0.0133 H   0  0  0  0  0  0  0  0  0  0  0  0
    2.1272    5.6611   -0.2551 H   0  0  0  0  0  0  0  0  0  0  0  0
   -3.2578    0.7226   -1.8375 H   0  0  0  0  0  0  0  0  0  0  0  0
   -4.7242   -1.5349    1.5736 H   0  0  0  0  0  0  0  0  0  0  0  0
   -0.2965    5.1702   -0.4556 H   0  0  0  0  0  0  0  0  0  0  0  0
   -5.4563    1.7511   -2.0706 H   0  0  0  0  0  0  0  0  0  0  0  0
   -6.8919   -0.4456    1.3314 H   0  0  0  0  0  0  0  0  0  0  0  0
   -7.2842    1.1913   -0.4903 H   0  0  0  0  0  0  0  0  0  0  0  0
  1  8  1  0  0  0  0
  1  9  1  0  0  0  0
  2  5  1  0  0  0  0
  2 13  1  0  0  0  0
  3  4  1  0  0  0  0
  3  6  1  0  0  0  0
  3  7  1  0  0  0  0
  4  5  1  0  0  0  0
  4 28  1  0  0  0  0
  4 29  1  0  0  0  0
  5  8  1  0  0  0  0
  5 30  1  0  0  0  0
  6  9  1  0  0  0  0
  6 31  1  0  0  0  0
  6 32  1  0  0  0  0
  7 10  1  0  0  0  0
  7 33  1  0  0  0  0
  7 34  1  0  0  0  0
  8 35  1  0  0  0  0
  8 36  1  0  0  0  0
  9 37  1  0  0  0  0
  9 38  1  0  0  0  0
 10 11  2  0  0  0  0
 10 12  1  0  0  0  0
 11 15  1  0  0  0  0
 11 39  1  0  0  0  0
 12 16  2  0  0  0  0
 12 40  1  0  0  0  0
 13 18  2  0  0  0  0
 13 19  1  0  0  0  0
 14 15  2  0  0  0  0
 14 16  1  0  0  0  0
 14 17  1  0  0  0  0
 15 41  1  0  0  0  0
 16 42  1  0  0  0  0
 17 22  2  0  0  0  0
 17 23  1  0  0  0  0
 18 20  1  0  0  0  0
 18 43  1  0  0  0  0
 19 21  2  0  0  0  0
 19 44  1  0  0  0  0
 20 24  2  0  0  0  0
 20 45  1  0  0  0  0
 21 24  1  0  0  0  0
 21 46  1  0  0  0  0
 22 25  1  0  0  0  0
 22 47  1  0  0  0  0
 23 26  2  0  0  0  0
 23 48  1  0  0  0  0
 24 49  1  0  0  0  0
 25 27  2  0  0  0  0
 25 50  1  0  0  0  0
 26 27  1  0  0  0  0
 26 51  1  0  0  0  0
 27 52  1  0  0  0  0
M  END
> <PUBCHEM_COMPOUND_CID>
75536910

> <PUBCHEM_CONFORMER_RMSD>
0.8

> <PUBCHEM_CONFORMER_DIVERSEORDER>
4
13
51
132
79
123
44
61
112
49
88
8
75
42
94
129
115
120
86
37
7
97
82
85
53
39
65
127
76
103
90
68
19
28
18
107
43
100
125
41
22
108
64
15
59
121
34
69
105
74
35
118
106
29
109
96
17
55
26
98
128
50
101
40
89
67
6
122
91
87
84
5
130
119
66
54
3
99
9
73
83
81
31
114
77
11
57
25
62
116
2
113
93
1
12
46
47
16
95
117
45
63
52
38
104
126
78
102
110
23
70
24
48
124
14
92
27
60
20
71
80
32
56
33
111
21
10
30
131
36
58
72

> <PUBCHEM_MMFF94_PARTIAL_CHARGES>
39
1 -0.56
10 -0.14
11 -0.15
12 -0.15
13 0.08
15 -0.15
16 -0.15
18 -0.15
19 -0.15
2 -0.36
20 -0.15
21 -0.15
22 -0.15
23 -0.15
24 -0.15
25 -0.15
26 -0.15
27 -0.15
3 -0.81
39 0.15
4 0.27
40 0.15
41 0.15
42 0.15
43 0.15
44 0.15
45 0.15
46 0.15
47 0.15
48 0.15
49 0.15
5 0.28
50 0.15
51 0.15
52 0.15
6 0.27
7 0.41
8 0.28
9 0.28

> <PUBCHEM_EFFECTIVE_ROTOR_COUNT>
6.4

> <PUBCHEM_PHARMACOPHORE_FEATURES>
7
1 1 acceptor
1 2 acceptor
1 3 cation
6 10 11 12 14 15 16 rings
6 13 18 19 20 21 24 rings
6 17 22 23 25 26 27 rings
7 1 3 4 5 6 8 9 rings

> <PUBCHEM_HEAVY_ATOM_COUNT>
27

> <PUBCHEM_ATOM_DEF_STEREO_COUNT>
1

> <PUBCHEM_ATOM_UDEF_STEREO_COUNT>
0

> <PUBCHEM_BOND_DEF_STEREO_COUNT>
0

> <PUBCHEM_BOND_UDEF_STEREO_COUNT>
0

> <PUBCHEM_ISOTOPIC_ATOM_COUNT>
0

> <PUBCHEM_COMPONENT_COUNT>
1

> <PUBCHEM_CACTVS_TAUTO_COUNT>
1

> <PUBCHEM_CONFORMER_ID>
04809A0E00000004

> <PUBCHEM_MMFF94_ENERGY>
98.1323

> <PUBCHEM_FEATURE_SELFOVERLAP>
35.523

> <PUBCHEM_SHAPE_FINGERPRINT>
10074138 170 16027287647746747259
10190206 1 18194150511215655452
11045977 3 18186806876984852235
11059048 146 17543072737110599317
11828042 279 17899960928028068359
12166972 35 18130787863244970659
12596602 18 13912609346821527567
12788726 201 18118685418399066978
12925494 130 18336823092849575193
13402501 40 18334293162740774909
13583140 156 18335430092694099635
138480 1 18411136939732344104
14028597 1 17605825929400602130
14363568 33 18337121162561487577
14681490 219 18339075978376817685
14849402 71 18337686269195042665
15081414 286 18412266138084412288
151778 21 18191303995163720437
15210252 30 18186525414803126060
15238133 3 18113609093530504442
15475509 84 17829598466358890155
15483637 11 17977946778634196957
15968369 153 17984678061986756005
17093844 170 18339916121567797904
1768 85 18265623250628952073
18335252 114 18340197485059429599
18785283 64 18263081166596868233
20554085 129 16660633035263243867
20621476 13 18338233889829825296
21033648 29 18040716974267012787
21033650 10 14763534628177903659
21285901 2 17844538712489023182
21315764 21 18341897453909840065
21344244 78 17827895366066729378
21475661 188 18334287712854466339
21860390 5 18343300396566186406
21987440 362 17901387019883907572
221357 26 18338796706570682287
22224240 67 10953755429826972798
23227448 37 18339073912904080823
23559900 14 18411979199793146393
3014063 31 18338795615691102492
3298306 158 18265052608057021277
340366 18 18060416936586162846
4340502 62 10737582617078653470
474 4 18340200899337052539
5081480 168 17912682195423859292
5265222 85 17614856535689613636
53794403 172 18191587664747192405
550186 83 17749932449684100600
58902169 19 17987782048410938335
6443956 14 18409730668571191276

> <PUBCHEM_SHAPE_MULTIPOLES>
538.93
11.75
5.35
1.14
13.44
6.47
0.03
-1.8
2.22
-6.3
-0.3
0.47
-0.38
1.43

> <PUBCHEM_SHAPE_SELFOVERLAP>
1163.606

> <PUBCHEM_SHAPE_VOLUME>
294.3

> <PUBCHEM_COORDINATE_TYPE>
2
5
10

$$$$
