45361403
  -OEChem-12032416143D

 69 71  0     1  0  0  0  0  0999 V2000
    1.5228    1.3304   -0.5692 O   0  0  0  0  0  0  0  0  0  0  0  0
    5.5785   -2.0093   -0.7306 O   0  0  0  0  0  0  0  0  0  0  0  0
   -4.6777    0.1526    2.1331 O   0  0  0  0  0  0  0  0  0  0  0  0
   -3.6681   -0.0844    0.0594 N   0  0  0  0  0  0  0  0  0  0  0  0
    5.9073   -0.0712    0.4899 N   0  0  0  0  0  0  0  0  0  0  0  0
    5.5355    4.7847    0.6970 N   0  0  0  0  0  0  0  0  0  0  0  0
    0.1166   -2.1311    0.2160 C   0  0  1  0  0  0  0  0  0  0  0  0
    0.1573   -0.5699    0.1161 C   0  0  2  0  0  0  0  0  0  0  0  0
   -1.2223   -0.0053   -0.3795 C   0  0  1  0  0  0  0  0  0  0  0  0
    1.4024   -0.0883   -0.6830 C   0  0  2  0  0  0  0  0  0  0  0  0
    1.4482   -2.6448    0.8128 C   0  0  0  0  0  0  0  0  0  0  0  0
    2.7225   -0.6884   -0.1455 C   0  0  1  0  0  0  0  0  0  0  0  0
   -1.0209   -2.5453    1.1779 C   0  0  0  0  0  0  0  0  0  0  0  0
   -2.3685   -0.4900    0.5523 C   0  0  2  0  0  0  0  0  0  0  0  0
    2.6668   -2.2080    0.0105 C   0  0  0  0  0  0  0  0  0  0  0  0
   -2.3814   -2.0039    0.7627 C   0  0  0  0  0  0  0  0  0  0  0  0
   -0.1065   -2.8087   -1.1598 C   0  0  0  0  0  0  0  0  0  0  0  0
    3.9202   -0.3072   -1.0242 C   0  0  2  0  0  0  0  0  0  0  0  0
   -1.2618    1.5294   -0.4733 C   0  0  0  0  0  0  0  0  0  0  0  0
    3.7013   -0.8373   -2.4422 C   0  0  0  0  0  0  0  0  0  0  0  0
    5.2077   -0.8721   -0.4189 C   0  0  0  0  0  0  0  0  0  0  0  0
   -4.7238    0.2054    0.9068 C   0  0  0  0  0  0  0  0  0  0  0  0
   -5.9991    0.5810    0.2439 C   0  0  0  0  0  0  0  0  0  0  0  0
    5.5579    1.2921    0.8843 C   0  0  0  0  0  0  0  0  0  0  0  0
    7.1266   -0.5885    1.1018 C   0  0  0  0  0  0  0  0  0  0  0  0
    6.2061    2.3414   -0.0108 C   0  0  0  0  0  0  0  0  0  0  0  0
   -7.2146    0.3508    0.8881 C   0  0  0  0  0  0  0  0  0  0  0  0
   -5.9806    1.1654   -1.0223 C   0  0  0  0  0  0  0  0  0  0  0  0
   -8.4119    0.7049    0.2661 C   0  0  0  0  0  0  0  0  0  0  0  0
   -7.1777    1.5196   -1.6445 C   0  0  0  0  0  0  0  0  0  0  0  0
   -8.3934    1.2894   -1.0004 C   0  0  0  0  0  0  0  0  0  0  0  0
    5.8307    3.7066    0.3855 C   0  0  0  0  0  0  0  0  0  0  0  0
    0.2831   -0.1777    1.1382 H   0  0  0  0  0  0  0  0  0  0  0  0
   -1.4142   -0.3780   -1.3936 H   0  0  0  0  0  0  0  0  0  0  0  0
    1.2324   -0.3163   -1.7366 H   0  0  0  0  0  0  0  0  0  0  0  0
    1.4367   -3.7403    0.8810 H   0  0  0  0  0  0  0  0  0  0  0  0
    1.5575   -2.2762    1.8418 H   0  0  0  0  0  0  0  0  0  0  0  0
    2.8951   -0.2692    0.8560 H   0  0  0  0  0  0  0  0  0  0  0  0
   -1.0780   -3.6389    1.2505 H   0  0  0  0  0  0  0  0  0  0  0  0
   -0.7983   -2.1822    2.1903 H   0  0  0  0  0  0  0  0  0  0  0  0
   -2.2244   -0.0196    1.5349 H   0  0  0  0  0  0  0  0  0  0  0  0
    3.5428   -2.5733    0.5578 H   0  0  0  0  0  0  0  0  0  0  0  0
    2.6547   -2.7405   -0.9420 H   0  0  0  0  0  0  0  0  0  0  0  0
   -2.7261   -2.5093   -0.1477 H   0  0  0  0  0  0  0  0  0  0  0  0
   -3.1161   -2.2655    1.5352 H   0  0  0  0  0  0  0  0  0  0  0  0
   -1.0691   -2.5511   -1.6088 H   0  0  0  0  0  0  0  0  0  0  0  0
   -0.0838   -3.9003   -1.0594 H   0  0  0  0  0  0  0  0  0  0  0  0
    0.6593   -2.5343   -1.8906 H   0  0  0  0  0  0  0  0  0  0  0  0
    4.0025    0.7792   -1.1125 H   0  0  0  0  0  0  0  0  0  0  0  0
   -0.6475    1.8902   -1.3030 H   0  0  0  0  0  0  0  0  0  0  0  0
   -0.9183    1.9936    0.4568 H   0  0  0  0  0  0  0  0  0  0  0  0
   -2.2716    1.9010   -0.6756 H   0  0  0  0  0  0  0  0  0  0  0  0
   -3.8122   -0.1310   -0.9438 H   0  0  0  0  0  0  0  0  0  0  0  0
    1.6273    1.5503    0.3722 H   0  0  0  0  0  0  0  0  0  0  0  0
    3.5821   -1.9200   -2.5153 H   0  0  0  0  0  0  0  0  0  0  0  0
    4.5898   -0.6051   -3.0443 H   0  0  0  0  0  0  0  0  0  0  0  0
    2.8673   -0.3524   -2.9551 H   0  0  0  0  0  0  0  0  0  0  0  0
    4.4706    1.4127    0.8721 H   0  0  0  0  0  0  0  0  0  0  0  0
    5.8590    1.4394    1.9296 H   0  0  0  0  0  0  0  0  0  0  0  0
    6.9993   -0.5995    2.1884 H   0  0  0  0  0  0  0  0  0  0  0  0
    7.3539   -1.6040    0.7680 H   0  0  0  0  0  0  0  0  0  0  0  0
    7.9648    0.0621    0.8371 H   0  0  0  0  0  0  0  0  0  0  0  0
    5.9217    2.1747   -1.0561 H   0  0  0  0  0  0  0  0  0  0  0  0
    7.2972    2.2433    0.0283 H   0  0  0  0  0  0  0  0  0  0  0  0
   -7.2502   -0.1073    1.8731 H   0  0  0  0  0  0  0  0  0  0  0  0
   -5.0557    1.3907   -1.5451 H   0  0  0  0  0  0  0  0  0  0  0  0
   -9.3585    0.5251    0.7672 H   0  0  0  0  0  0  0  0  0  0  0  0
   -7.1636    1.9814   -2.6275 H   0  0  0  0  0  0  0  0  0  0  0  0
   -9.3254    1.5665   -1.4842 H   0  0  0  0  0  0  0  0  0  0  0  0
  1 10  1  0  0  0  0
  1 54  1  0  0  0  0
  2 21  2  0  0  0  0
  3 22  2  0  0  0  0
  4 14  1  0  0  0  0
  4 22  1  0  0  0  0
  4 53  1  0  0  0  0
  5 21  1  0  0  0  0
  5 24  1  0  0  0  0
  5 25  1  0  0  0  0
  6 32  3  0  0  0  0
  7  8  1  0  0  0  0
  7 11  1  0  0  0  0
  7 13  1  0  0  0  0
  7 17  1  0  0  0  0
  8  9  1  0  0  0  0
  8 10  1  0  0  0  0
  8 33  1  0  0  0  0
  9 14  1  0  0  0  0
  9 19  1  0  0  0  0
  9 34  1  0  0  0  0
 10 12  1  0  0  0  0
 10 35  1  0  0  0  0
 11 15  1  0  0  0  0
 11 36  1  0  0  0  0
 11 37  1  0  0  0  0
 12 15  1  0  0  0  0
 12 18  1  0  0  0  0
 12 38  1  0  0  0  0
 13 16  1  0  0  0  0
 13 39  1  0  0  0  0
 13 40  1  0  0  0  0
 14 16  1  0  0  0  0
 14 41  1  0  0  0  0
 15 42  1  0  0  0  0
 15 43  1  0  0  0  0
 16 44  1  0  0  0  0
 16 45  1  0  0  0  0
 17 46  1  0  0  0  0
 17 47  1  0  0  0  0
 17 48  1  0  0  0  0
 18 20  1  0  0  0  0
 18 21  1  0  0  0  0
 18 49  1  0  0  0  0
 19 50  1  0  0  0  0
 19 51  1  0  0  0  0
 19 52  1  0  0  0  0
 20 55  1  0  0  0  0
 20 56  1  0  0  0  0
 20 57  1  0  0  0  0
 22 23  1  0  0  0  0
 23 27  2  0  0  0  0
 23 28  1  0  0  0  0
 24 26  1  0  0  0  0
 24 58  1  0  0  0  0
 24 59  1  0  0  0  0
 25 60  1  0  0  0  0
 25 61  1  0  0  0  0
 25 62  1  0  0  0  0
 26 32  1  0  0  0  0
 26 63  1  0  0  0  0
 26 64  1  0  0  0  0
 27 29  1  0  0  0  0
 27 65  1  0  0  0  0
 28 30  2  0  0  0  0
 28 66  1  0  0  0  0
 29 31  2  0  0  0  0
 29 67  1  0  0  0  0
 30 31  1  0  0  0  0
 30 68  1  0  0  0  0
 31 69  1  0  0  0  0
M  END
> <PUBCHEM_COMPOUND_CID>
45361403

> <PUBCHEM_CONFORMER_RMSD>
1

> <PUBCHEM_CONFORMER_DIVERSEORDER>
1
18
96
45
160
104
43
91
102
13
153
154
87
67
162
116
71
19
151
129
41
134
143
63
20
70
146
61
144
59
93
127
99
152
111
46
76
47
138
56
82
125
88
95
132
74
78
24
80
122
50
158
147
94
29
51
120
106
124
48
28
31
97
114
126
140
117
149
33
123
89
81
131
4
150
75
65
145
137
77
49
156
8
128
110
139
25
73
101
141
157
55
52
113
69
32
22
109
30
62
108
98
68
39
133
112
105
121
107
66
12
100
36
27
40
23
42
103
37
142
34
60
90
115
155
148
85
9
83
53
84
161
136
72
118
5
58
64
135
130
2
57
14
92
26
10
38
16
79
159
7
119
44
3
54
6
15
35
86
21
11
17

> <PUBCHEM_MMFF94_PARTIAL_CHARGES>
28
1 -0.68
10 0.28
14 0.3
18 0.06
2 -0.57
21 0.57
22 0.54
23 0.09
24 0.3
25 0.3
26 0.2
27 -0.15
28 -0.15
29 -0.15
3 -0.57
30 -0.15
31 -0.15
32 0.36
4 -0.73
5 -0.66
53 0.37
54 0.4
6 -0.56
65 0.15
66 0.15
67 0.15
68 0.15
69 0.15

> <PUBCHEM_EFFECTIVE_ROTOR_COUNT>
9.6

> <PUBCHEM_PHARMACOPHORE_FEATURES>
10
1 1 acceptor
1 1 donor
1 2 acceptor
1 20 hydrophobe
1 3 acceptor
1 4 donor
1 6 acceptor
6 23 27 28 29 30 31 rings
6 7 8 10 11 12 15 rings
6 7 8 9 13 14 16 rings

> <PUBCHEM_HEAVY_ATOM_COUNT>
32

> <PUBCHEM_ATOM_DEF_STEREO_COUNT>
6

> <PUBCHEM_ATOM_UDEF_STEREO_COUNT>
1

> <PUBCHEM_BOND_DEF_STEREO_COUNT>
0

> <PUBCHEM_BOND_UDEF_STEREO_COUNT>
0

> <PUBCHEM_ISOTOPIC_ATOM_COUNT>
0

> <PUBCHEM_COMPONENT_COUNT>
1

> <PUBCHEM_CACTVS_TAUTO_COUNT>
2

> <PUBCHEM_CONFORMER_ID>
02B428FB00000001

> <PUBCHEM_MMFF94_ENERGY>
95.3948

> <PUBCHEM_FEATURE_SELFOVERLAP>
50.761

> <PUBCHEM_SHAPE_FINGERPRINT>
10 15 17967534584028382888
10006869 2 18261946350190537866
10280341 67 17984975154224652768
10835480 77 18412546547925239752
11331351 85 8070023364072034115
11386260 185 18201727215592771860
11719270 70 17894633608553331619
12166972 35 14333119767888078547
12838862 33 18261943085724956575
12925494 130 18197213874626932208
13673619 4 12535335793566530083
13782708 43 11887661859043236741
14190465 44 17823704250994698567
15183329 4 16081375120556555837
15840311 113 18411139134223177908
16120349 18 18412822499410535713
18335252 98 9871747997152590770
21033648 29 17821449071395101247
21150785 3 16702296837321117139
21403212 168 18334008367839123938
21521721 280 18413672413609253681
21585482 111 18265334100752548128
21792934 111 18040991800285890528
21859007 373 17894901906602007525
22224240 67 18333449833586758443
23522609 53 16772975613998023483
27425 322 18343020029971288670
2838139 119 18408316679332422783
312425 54 13768220427199473577
335352 9 18260838068276687846
3472631 163 18272090526347025990
34797466 226 17917999339029366423
4093350 32 17632860797821978062
4258327 124 17917714659996652877
5104073 3 18261962967688012522
57634706 306 18337665412084578433

> <PUBCHEM_SHAPE_MULTIPOLES>
625.99
23.04
3.52
1.43
25.28
2.6
0.34
17.49
-0.46
-7.08
-0.59
0.39
-0.18
2.48

> <PUBCHEM_SHAPE_SELFOVERLAP>
1298.479

> <PUBCHEM_SHAPE_VOLUME>
350.6

> <PUBCHEM_COORDINATE_TYPE>
2
5
10

$$$$
