23983673
  -OEChem-12032416373D

 60 65  0     1  0  0  0  0  0999 V2000
    2.3472   -2.4326    2.0797 O   0  0  0  0  0  0  0  0  0  0  0  0
    2.6419   -3.5816   -0.8098 O   0  0  0  0  0  0  0  0  0  0  0  0
   -1.8717   -2.1059    1.1781 O   0  0  0  0  0  0  0  0  0  0  0  0
   -7.3845    0.4921   -1.1079 O   0  0  0  0  0  0  0  0  0  0  0  0
    4.5852   -0.6844    0.4425 N   0  0  0  0  0  0  0  0  0  0  0  0
   -0.3069   -2.6856   -0.4232 N   0  0  0  0  0  0  0  0  0  0  0  0
    3.8402    0.3119    0.9482 N   0  0  0  0  0  0  0  0  0  0  0  0
    4.5247    1.4386    0.7842 N   0  0  0  0  0  0  0  0  0  0  0  0
   -2.2941   -1.7568   -1.1044 N   0  0  0  0  0  0  0  0  0  0  0  0
    7.8132    1.5644   -0.7820 N   0  0  0  0  0  0  0  0  0  0  0  0
    2.7620   -2.2578   -0.2577 C   0  0  1  0  0  0  0  0  0  0  0  0
    1.7111   -2.1296    0.8277 C   0  0  1  0  0  0  0  0  0  0  0  0
    4.0857   -2.1172    0.4733 C   0  0  2  0  0  0  0  0  0  0  0  0
    0.6930   -3.1932    0.4849 C   0  0  2  0  0  0  0  0  0  0  0  0
    3.7448   -2.6657    1.8559 C   0  0  0  0  0  0  0  0  0  0  0  0
    1.5469   -4.2592   -0.1770 C   0  0  0  0  0  0  0  0  0  0  0  0
    5.7644   -0.2249   -0.0580 C   0  0  0  0  0  0  0  0  0  0  0  0
   -1.5390   -2.1697   -0.0030 C   0  0  0  0  0  0  0  0  0  0  0  0
    5.7056    1.1271    0.1692 C   0  0  0  0  0  0  0  0  0  0  0  0
    6.7162    2.0739   -0.1783 C   0  0  0  0  0  0  0  0  0  0  0  0
   -3.5873   -1.1839   -1.1053 C   0  0  0  0  0  0  0  0  0  0  0  0
    6.5405    3.4188    0.1047 C   0  0  0  0  0  0  0  0  0  0  0  0
   -4.1927   -0.8301   -2.3112 C   0  0  0  0  0  0  0  0  0  0  0  0
   -4.2577   -0.9737    0.0998 C   0  0  0  0  0  0  0  0  0  0  0  0
    7.5561    4.2975   -0.2554 C   0  0  0  0  0  0  0  0  0  0  0  0
    8.7793    2.4487   -1.1173 C   0  0  0  0  0  0  0  0  0  0  0  0
   -5.4685   -0.2663   -2.3120 C   0  0  0  0  0  0  0  0  0  0  0  0
   -5.5335   -0.4098    0.0988 C   0  0  0  0  0  0  0  0  0  0  0  0
    8.7001    3.8113   -0.8785 C   0  0  0  0  0  0  0  0  0  0  0  0
   -6.1388   -0.0561   -1.1070 C   0  0  0  0  0  0  0  0  0  0  0  0
   -7.6484    1.4926   -0.1875 C   0  0  0  0  0  0  0  0  0  0  0  0
   -6.7250    2.5191    0.0110 C   0  0  0  0  0  0  0  0  0  0  0  0
   -8.8373    1.4736    0.5417 C   0  0  0  0  0  0  0  0  0  0  0  0
   -6.9904    3.5265    0.9387 C   0  0  0  0  0  0  0  0  0  0  0  0
   -9.1029    2.4809    1.4692 C   0  0  0  0  0  0  0  0  0  0  0  0
   -8.1794    3.5074    1.6678 C   0  0  0  0  0  0  0  0  0  0  0  0
    2.6196   -1.5481   -1.0790 H   0  0  0  0  0  0  0  0  0  0  0  0
    1.2938   -1.1207    0.9064 H   0  0  0  0  0  0  0  0  0  0  0  0
    4.8944   -2.6991    0.0162 H   0  0  0  0  0  0  0  0  0  0  0  0
    0.1897   -3.5985    1.3692 H   0  0  0  0  0  0  0  0  0  0  0  0
    4.3219   -2.2000    2.6603 H   0  0  0  0  0  0  0  0  0  0  0  0
    3.9055   -3.7485    1.8954 H   0  0  0  0  0  0  0  0  0  0  0  0
    1.9732   -4.9386    0.5694 H   0  0  0  0  0  0  0  0  0  0  0  0
    1.0111   -4.8570   -0.9206 H   0  0  0  0  0  0  0  0  0  0  0  0
   -0.0805   -2.6405   -1.4121 H   0  0  0  0  0  0  0  0  0  0  0  0
    6.5008   -0.8761   -0.5086 H   0  0  0  0  0  0  0  0  0  0  0  0
   -1.8702   -1.8804   -2.0205 H   0  0  0  0  0  0  0  0  0  0  0  0
    5.6492    3.8022    0.5908 H   0  0  0  0  0  0  0  0  0  0  0  0
   -3.6814   -0.9887   -3.2572 H   0  0  0  0  0  0  0  0  0  0  0  0
   -3.8577   -1.2263    1.0714 H   0  0  0  0  0  0  0  0  0  0  0  0
    7.4565    5.3593   -0.0510 H   0  0  0  0  0  0  0  0  0  0  0  0
    9.6506    2.0192   -1.6005 H   0  0  0  0  0  0  0  0  0  0  0  0
   -5.9352    0.0072   -3.2544 H   0  0  0  0  0  0  0  0  0  0  0  0
   -6.0427   -0.2791    1.0502 H   0  0  0  0  0  0  0  0  0  0  0  0
    9.5044    4.4778   -1.1679 H   0  0  0  0  0  0  0  0  0  0  0  0
   -5.8012    2.5706   -0.5589 H   0  0  0  0  0  0  0  0  0  0  0  0
   -9.5598    0.6761    0.3914 H   0  0  0  0  0  0  0  0  0  0  0  0
   -6.2738    4.3284    1.0898 H   0  0  0  0  0  0  0  0  0  0  0  0
  -10.0286    2.4661    2.0369 H   0  0  0  0  0  0  0  0  0  0  0  0
   -8.3868    4.2924    2.3891 H   0  0  0  0  0  0  0  0  0  0  0  0
  1 12  1  0  0  0  0
  1 15  1  0  0  0  0
  2 11  1  0  0  0  0
  2 16  1  0  0  0  0
  3 18  2  0  0  0  0
  4 30  1  0  0  0  0
  4 31  1  0  0  0  0
  5  7  1  0  0  0  0
  5 13  1  0  0  0  0
  5 17  1  0  0  0  0
  6 14  1  0  0  0  0
  6 18  1  0  0  0  0
  6 45  1  0  0  0  0
  7  8  2  0  0  0  0
  8 19  1  0  0  0  0
  9 18  1  0  0  0  0
  9 21  1  0  0  0  0
  9 47  1  0  0  0  0
 10 20  1  0  0  0  0
 10 26  2  0  0  0  0
 11 12  1  0  0  0  0
 11 13  1  0  0  0  0
 11 37  1  0  0  0  0
 12 14  1  0  0  0  0
 12 38  1  0  0  0  0
 13 15  1  0  0  0  0
 13 39  1  0  0  0  0
 14 16  1  0  0  0  0
 14 40  1  0  0  0  0
 15 41  1  0  0  0  0
 15 42  1  0  0  0  0
 16 43  1  0  0  0  0
 16 44  1  0  0  0  0
 17 19  2  0  0  0  0
 17 46  1  0  0  0  0
 19 20  1  0  0  0  0
 20 22  2  0  0  0  0
 21 23  2  0  0  0  0
 21 24  1  0  0  0  0
 22 25  1  0  0  0  0
 22 48  1  0  0  0  0
 23 27  1  0  0  0  0
 23 49  1  0  0  0  0
 24 28  2  0  0  0  0
 24 50  1  0  0  0  0
 25 29  2  0  0  0  0
 25 51  1  0  0  0  0
 26 29  1  0  0  0  0
 26 52  1  0  0  0  0
 27 30  2  0  0  0  0
 27 53  1  0  0  0  0
 28 30  1  0  0  0  0
 28 54  1  0  0  0  0
 29 55  1  0  0  0  0
 31 32  2  0  0  0  0
 31 33  1  0  0  0  0
 32 34  1  0  0  0  0
 32 56  1  0  0  0  0
 33 35  2  0  0  0  0
 33 57  1  0  0  0  0
 34 36  2  0  0  0  0
 34 58  1  0  0  0  0
 35 36  1  0  0  0  0
 35 59  1  0  0  0  0
 36 60  1  0  0  0  0
M  END
> <PUBCHEM_COMPOUND_CID>
23983673

> <PUBCHEM_CONFORMER_RMSD>
1.2

> <PUBCHEM_CONFORMER_DIVERSEORDER>
1
58
61
93
44
94
75
95
68
11
88
79
63
16
87
31
62
30
69
52
90
47
78
84
26
72
40
66
53
14
25
9
89
28
65
64
50
55
71
77
34
70
67
92
10
18
56
76
38
60
8
13
74
15
51
83
12
81
39
33
91
32
96
27
41
42
82
57
45
22
73
29
4
49
48
85
21
23
86
43
59
19
80
46
7
17
37
20
54
36
3
24
2
6
35
5

> <PUBCHEM_MMFF94_PARTIAL_CHARGES>
52
1 -0.56
10 -0.62
11 0.28
12 0.28
13 0.26
14 0.3
15 0.28
16 0.28
17 -0.3
18 0.69
19 0.17
2 -0.56
20 0.36
21 0.12
22 -0.15
23 -0.15
24 -0.15
25 -0.15
26 0.16
27 -0.15
28 -0.15
29 -0.15
3 -0.57
30 0.08
31 0.08
32 -0.15
33 -0.15
34 -0.15
35 -0.15
36 -0.15
4 -0.17
45 0.37
46 0.15
47 0.37
48 0.15
49 0.15
5 0.31
50 0.15
51 0.15
52 0.15
53 0.15
54 0.15
55 0.15
56 0.15
57 0.15
58 0.15
59 0.15
6 -0.73
60 0.15
7 -0.42
8 -0.23
9 -0.55

> <PUBCHEM_EFFECTIVE_ROTOR_COUNT>
9.2

> <PUBCHEM_PHARMACOPHORE_FEATURES>
13
1 1 acceptor
1 10 acceptor
1 2 acceptor
1 3 acceptor
1 4 acceptor
1 6 donor
1 9 donor
5 1 11 12 13 15 rings
5 2 11 12 14 16 rings
5 5 7 8 17 19 rings
6 10 20 22 25 26 29 rings
6 21 23 24 27 28 30 rings
6 31 32 33 34 35 36 rings

> <PUBCHEM_HEAVY_ATOM_COUNT>
36

> <PUBCHEM_ATOM_DEF_STEREO_COUNT>
4

> <PUBCHEM_ATOM_UDEF_STEREO_COUNT>
0

> <PUBCHEM_BOND_DEF_STEREO_COUNT>
0

> <PUBCHEM_BOND_UDEF_STEREO_COUNT>
0

> <PUBCHEM_ISOTOPIC_ATOM_COUNT>
0

> <PUBCHEM_COMPONENT_COUNT>
1

> <PUBCHEM_CACTVS_TAUTO_COUNT>
3

> <PUBCHEM_CONFORMER_ID>
016DF63900000001

> <PUBCHEM_MMFF94_ENERGY>
105.7592

> <PUBCHEM_FEATURE_SELFOVERLAP>
66.731

> <PUBCHEM_SHAPE_FINGERPRINT>
10055352 69 18270119149469923851
10533779 1 18189881162687705084
10838868 160 18341321253892938073
10920273 25 18410581703414027621
10939801 23 18412827958868116781
11227150 75 11025797591435314846
11399510 152 16227160397795880323
11478447 62 10303820856590204804
1200032 147 18260263066871497618
12013929 112 14117524199878348409
12013929 29 18340767052787346348
12061779 8 18342734122239545109
12120059 9 10735603427935335534
12124843 1 17774727575478438196
12125137 17 18413392016928330089
12539765 74 18201722838325629366
12559415 36 18129119861351900617
131240 88 18408892849438099336
13726171 33 18335138726022591219
13782708 43 8718242660867946355
13944108 23 18341895178352470072
14201967 126 18412265042826755553
14359421 15 12966861125517972204
14394314 77 18408604790229291509
14400156 260 18261107475154601280
14849402 71 18410572882410895177
14904525 67 18116427043280868397
14931854 50 17846784039765491424
15131766 46 18342170077407280779
15145343 16 18041571338210403972
15198563 99 17408513396287101982
15276724 80 18266172838928955605
15347591 1 18409166649520034434
15685185 35 18337112358131764473
15773879 343 18202002118980422073
15803439 3 17130994329748745830
16067689 68 11459240434150023644
16728433 281 18337672044115490116
16993089 31 12750659843055928581
17899979 129 18412545388484737798
19053607 189 18341321280216207938
19304671 126 18411986867169827294
19309040 13 18272086102093485615
20691028 202 18337387274956807380
20766409 102 18410855508596798341
208703 8 9439407895517022040
21033648 29 17458062694750906746
21298829 104 18410011052473260637
21585481 104 17988650670801875548
23522609 53 18059289852296727623
23569943 247 9367347051022243053
24771293 8 18260265278605614383
2835820 40 18339922594126217249
3711267 37 18343867705616338825
393628 194 18336545035500878637
3986486 107 18059862800839004148
4169191 19 18410567363240555829
4366758 26 18198629839556087713
474113 269 9079115549435910659
5718773 13 10159709001329284166
57303763 176 18413671319532348800
58083652 198 18044076983560424511
5874358 3 7853569085511490577
5911458 16 18272651208715918625
5937810 71 18413111684175380545
6201320 82 18044388343115637092
6289498 60 18041548179014020473
636783 225 18334853867176537141
636783 98 17703803500435201033
96874 4 8286196158927502069

> <PUBCHEM_SHAPE_MULTIPOLES>
687.5
32.93
6.09
1.62
12.06
1.46
0.23
51.51
0.87
-7.51
-1.1
2.09
-0.29
-6.24

> <PUBCHEM_SHAPE_SELFOVERLAP>
1518.423

> <PUBCHEM_SHAPE_VOLUME>
366.2

> <PUBCHEM_COORDINATE_TYPE>
2
5
10

$$$$
