75536678
  -OEChem-12032416413D

 49 51  0     1  0  0  0  0  0999 V2000
    3.8594    1.6251   -0.1240 S   0  0  0  0  0  0  0  0  0  0  0  0
   -0.4376    0.6843   -1.3562 O   0  0  0  0  0  0  0  0  0  0  0  0
   -1.1535    0.5407    2.1612 O   0  0  0  0  0  0  0  0  0  0  0  0
    3.8252    2.1861    1.2132 O   0  0  0  0  0  0  0  0  0  0  0  0
    4.5561    2.3207   -1.1891 O   0  0  0  0  0  0  0  0  0  0  0  0
   -3.3088   -0.8025    0.3101 N   0  0  0  0  0  0  0  0  0  0  0  0
   -7.5210   -0.2485    0.0811 N   0  0  0  0  0  0  0  0  0  0  0  0
    2.2724    1.2826   -0.6322 N   0  0  0  0  0  0  0  0  0  0  0  0
   -2.3050    0.2121    0.0336 C   0  0  1  0  0  0  0  0  0  0  0  0
   -1.0316    0.0452    0.8421 C   0  0  1  0  0  0  0  0  0  0  0  0
   -4.6100   -0.4026   -0.2206 C   0  0  0  0  0  0  0  0  0  0  0  0
   -0.0501    0.8654    0.0160 C   0  0  1  0  0  0  0  0  0  0  0  0
   -1.7701    0.1435   -1.3874 C   0  0  0  0  0  0  0  0  0  0  0  0
   -5.2828    0.6279    0.6934 C   0  0  0  0  0  0  0  0  0  0  0  0
   -5.5139   -1.6284   -0.3885 C   0  0  0  0  0  0  0  0  0  0  0  0
    1.3949    0.4382    0.2020 C   0  0  0  0  0  0  0  0  0  0  0  0
   -6.6931    0.9543    0.2000 C   0  0  0  0  0  0  0  0  0  0  0  0
   -6.9152   -1.2139   -0.8396 C   0  0  0  0  0  0  0  0  0  0  0  0
    4.5626    0.0068   -0.0181 C   0  0  0  0  0  0  0  0  0  0  0  0
    5.1923   -0.5538   -1.1292 C   0  0  0  0  0  0  0  0  0  0  0  0
    4.4844   -0.7109    1.1753 C   0  0  0  0  0  0  0  0  0  0  0  0
    5.7439   -1.8325   -1.0471 C   0  0  0  0  0  0  0  0  0  0  0  0
    5.0359   -1.9894    1.2576 C   0  0  0  0  0  0  0  0  0  0  0  0
    5.6657   -2.5503    0.1464 C   0  0  0  0  0  0  0  0  0  0  0  0
   -2.6861    1.2204    0.2357 H   0  0  0  0  0  0  0  0  0  0  0  0
   -0.7275   -1.0080    0.8867 H   0  0  0  0  0  0  0  0  0  0  0  0
   -4.4928    0.0373   -1.2201 H   0  0  0  0  0  0  0  0  0  0  0  0
   -0.1454    1.9352    0.2446 H   0  0  0  0  0  0  0  0  0  0  0  0
   -3.3801   -0.9603    1.3149 H   0  0  0  0  0  0  0  0  0  0  0  0
   -1.6915   -0.8866   -1.7536 H   0  0  0  0  0  0  0  0  0  0  0  0
   -2.3742    0.7165   -2.0973 H   0  0  0  0  0  0  0  0  0  0  0  0
   -4.7127    1.5616    0.7404 H   0  0  0  0  0  0  0  0  0  0  0  0
   -5.3438    0.2418    1.7201 H   0  0  0  0  0  0  0  0  0  0  0  0
   -5.5879   -2.1778    0.5598 H   0  0  0  0  0  0  0  0  0  0  0  0
   -5.0832   -2.3190   -1.1240 H   0  0  0  0  0  0  0  0  0  0  0  0
    1.5282   -0.6005   -0.1204 H   0  0  0  0  0  0  0  0  0  0  0  0
    1.6685    0.5238    1.2579 H   0  0  0  0  0  0  0  0  0  0  0  0
   -6.6461    1.4755   -0.7642 H   0  0  0  0  0  0  0  0  0  0  0  0
   -7.1701    1.6392    0.9097 H   0  0  0  0  0  0  0  0  0  0  0  0
   -7.5530   -2.1035   -0.8853 H   0  0  0  0  0  0  0  0  0  0  0  0
   -6.8788   -0.7952   -1.8529 H   0  0  0  0  0  0  0  0  0  0  0  0
   -8.4444    0.0117   -0.2644 H   0  0  0  0  0  0  0  0  0  0  0  0
   -1.4248    1.4731    2.1140 H   0  0  0  0  0  0  0  0  0  0  0  0
    2.0727    1.2741   -1.6403 H   0  0  0  0  0  0  0  0  0  0  0  0
    5.2577   -0.0163   -2.0708 H   0  0  0  0  0  0  0  0  0  0  0  0
    3.9962   -0.2951    2.0520 H   0  0  0  0  0  0  0  0  0  0  0  0
    6.2325   -2.2701   -1.9127 H   0  0  0  0  0  0  0  0  0  0  0  0
    4.9742   -2.5488    2.1865 H   0  0  0  0  0  0  0  0  0  0  0  0
    6.0944   -3.5461    0.2104 H   0  0  0  0  0  0  0  0  0  0  0  0
  1  4  2  0  0  0  0
  1  5  2  0  0  0  0
  1  8  1  0  0  0  0
  1 19  1  0  0  0  0
  2 12  1  0  0  0  0
  2 13  1  0  0  0  0
  3 10  1  0  0  0  0
  3 43  1  0  0  0  0
  6  9  1  0  0  0  0
  6 11  1  0  0  0  0
  6 29  1  0  0  0  0
  7 17  1  0  0  0  0
  7 18  1  0  0  0  0
  7 42  1  0  0  0  0
  8 16  1  0  0  0  0
  8 44  1  0  0  0  0
  9 10  1  0  0  0  0
  9 13  1  0  0  0  0
  9 25  1  0  0  0  0
 10 12  1  0  0  0  0
 10 26  1  0  0  0  0
 11 14  1  0  0  0  0
 11 15  1  0  0  0  0
 11 27  1  0  0  0  0
 12 16  1  0  0  0  0
 12 28  1  0  0  0  0
 13 30  1  0  0  0  0
 13 31  1  0  0  0  0
 14 17  1  0  0  0  0
 14 32  1  0  0  0  0
 14 33  1  0  0  0  0
 15 18  1  0  0  0  0
 15 34  1  0  0  0  0
 15 35  1  0  0  0  0
 16 36  1  0  0  0  0
 16 37  1  0  0  0  0
 17 38  1  0  0  0  0
 17 39  1  0  0  0  0
 18 40  1  0  0  0  0
 18 41  1  0  0  0  0
 19 20  2  0  0  0  0
 19 21  1  0  0  0  0
 20 22  1  0  0  0  0
 20 45  1  0  0  0  0
 21 23  2  0  0  0  0
 21 46  1  0  0  0  0
 22 24  2  0  0  0  0
 22 47  1  0  0  0  0
 23 24  1  0  0  0  0
 23 48  1  0  0  0  0
 24 49  1  0  0  0  0
M  END
> <PUBCHEM_COMPOUND_CID>
75536678

> <PUBCHEM_CONFORMER_RMSD>
0.8

> <PUBCHEM_CONFORMER_DIVERSEORDER>
1
219
182
171
36
270
226
96
95
255
44
245
79
193
115
205
220
199
228
243
136
213
107
108
196
214
68
169
215
14
222
209
133
165
53
224
239
56
118
48
147
31
178
266
258
194
100
192
114
175
161
69
191
164
247
98
252
8
83
162
16
23
88
257
265
200
203
259
117
81
217
212
236
179
144
263
221
125
195
58
218
159
10
32
206
223
166
7
249
85
168
127
37
116
150
91
152
126
184
158
225
124
250
157
9
145
5
197
148
170
238
261
173
51
94
11
103
176
20
268
132
52
66
267
130
137
187
234
188
55
77
3
119
131
78
134
154
262
123
231
89
256
237
167
113
251
128
18
230
241
61
111
210
233
57
202
21
229
269
112
244
70
84
254
186
272
60
75
93
110
4
43
189
271
46
180
90
177
208
35
216
235
25
62
12
183
80
33
246
38
97
143
140
153
156
101
65
211
76
135
181
174
141
163
13
190
253
129
17
260
149
242
29
151
59
86
264
28
120
92
121
30
82
15
34
248
40
227
185
99
42
207
39
232
102
45
6
122
240
155
109
139
204
64
41
71
67
47
106
87
201
73
54
138
74
172
146
2
50
160
63
104
198
22
72
24
19
142
26
27
49
105

> <PUBCHEM_MMFF94_PARTIAL_CHARGES>
31
1 1.45
10 0.28
11 0.27
12 0.28
13 0.28
16 0.36
17 0.27
18 0.27
19 -0.01
2 -0.56
20 -0.15
21 -0.15
22 -0.15
23 -0.15
24 -0.15
29 0.36
3 -0.68
4 -0.65
42 0.36
43 0.4
44 0.42
45 0.15
46 0.15
47 0.15
48 0.15
49 0.15
5 -0.65
6 -0.9
7 -0.9
8 -0.91
9 0.27

> <PUBCHEM_EFFECTIVE_ROTOR_COUNT>
8.2

> <PUBCHEM_PHARMACOPHORE_FEATURES>
13
1 2 acceptor
1 3 acceptor
1 3 donor
1 4 acceptor
1 5 acceptor
1 6 cation
1 6 donor
1 7 cation
1 7 donor
1 8 donor
5 2 9 10 12 13 rings
6 19 20 21 22 23 24 rings
6 7 11 14 15 17 18 rings

> <PUBCHEM_HEAVY_ATOM_COUNT>
24

> <PUBCHEM_ATOM_DEF_STEREO_COUNT>
3

> <PUBCHEM_ATOM_UDEF_STEREO_COUNT>
0

> <PUBCHEM_BOND_DEF_STEREO_COUNT>
0

> <PUBCHEM_BOND_UDEF_STEREO_COUNT>
0

> <PUBCHEM_ISOTOPIC_ATOM_COUNT>
0

> <PUBCHEM_COMPONENT_COUNT>
1

> <PUBCHEM_CACTVS_TAUTO_COUNT>
1

> <PUBCHEM_CONFORMER_ID>
0480992600000001

> <PUBCHEM_MMFF94_ENERGY>
25.4114

> <PUBCHEM_FEATURE_SELFOVERLAP>
65.99

> <PUBCHEM_SHAPE_FINGERPRINT>
10 15 15482663598037597235
10670039 82 14490746802854937238
10906281 52 13479407211828786637
11719270 70 17561366166986773407
11724838 91 10375863061606628704
11796584 16 18343305906761794006
12166972 35 18411421717470963849
12236239 1 18343021108039104089
125118 31 10303826379933900147
12616971 3 17846206769895298108
13533116 47 18412544323321844184
1361 2 18260547835840451034
13617811 41 15502093050816327438
13782708 43 18413102888298467503
13914758 101 18341051822811270129
14211702 104 18263086677103992091
14251752 14 18271806796649420537
14251764 75 11166780306056264906
14347332 77 18187640250246381877
14347424 109 18201433679804880128
15183329 4 18333732407858565619
15188451 53 17846496985594900266
15419008 42 17699851718210801685
15475509 8 17240766147033081853
17844677 252 18114179722310879852
20028762 73 18273495650494318766
20567600 234 12535339116974145395
20645477 70 18333450946262492708
21150785 3 13334744526632793823
21344244 78 17703498931803792592
21521721 280 9655576335972686645
21641784 216 14707197786842703655
21792934 111 15267071298587650531
220451 1 18341337794170060845
22061861 79 18186515505843997639
221357 26 17821729408221361396
2215653 11 17603871095798104042
23081809 10 18271811250372354837
23522609 53 18045813158758813004
23536379 177 18411701002388269665
23559900 14 16878237436596579662
23569943 247 17823410492617809547
29717793 49 18410014338260028084
3004659 81 18341897394059644558
3014965 18 18335137579149518063
3472631 163 11891630017909156274
34797466 226 13334742305807829754
3886686 26 16265200077007207950
394071 54 17095811035068885660
397830 11 12894777208004885311
4072396 5 16845574214210075021
4073 2 18116717511280267026
4340502 62 13326854426696602276
465052 167 18342740698314782918
5372103 7 14925099096711348638
59682541 52 17894907412596865698
59755656 215 17095518466233333707
960060 61 17676214563534499942
9965369 4 18342177748445458481

> <PUBCHEM_SHAPE_MULTIPOLES>
459.34
20.36
2.11
1.34
19.9
0.17
0.18
8.18
-1.34
-3.69
-0.05
-0.88
-0.07
-1.02

> <PUBCHEM_SHAPE_SELFOVERLAP>
938.602

> <PUBCHEM_SHAPE_VOLUME>
265.8

> <PUBCHEM_COORDINATE_TYPE>
2
5
10

$$$$
