11887518
  -OEChem-12032416113D

 54 57  0     1  0  0  0  0  0999 V2000
    0.9901    2.3495    1.7477 O   0  0  0  0  0  0  0  0  0  0  0  0
   -3.1398   -0.7106    2.3324 O   0  0  0  0  0  0  0  0  0  0  0  0
    3.4606   -1.1170   -0.5470 O   0  0  0  0  0  0  0  0  0  0  0  0
   -3.3151    0.3267    0.2424 N   0  0  0  0  0  0  0  0  0  0  0  0
   -0.6077    1.9713    0.0852 N   0  0  0  0  0  0  0  0  0  0  0  0
    2.9329    0.9374    0.4126 N   0  0  0  0  0  0  0  0  0  0  0  0
   -2.8504   -4.1366   -0.4176 N   0  0  0  0  0  0  0  0  0  0  0  0
    6.1043   -0.7362    0.1432 N   0  0  0  0  0  0  0  0  0  0  0  0
   -3.0249    2.7982    0.2743 C   0  0  1  0  0  0  0  0  0  0  0  0
   -2.3222    1.5097   -1.7022 C   0  0  2  0  0  0  0  0  0  0  0  0
   -2.9916    2.8065   -1.2501 C   0  0  0  0  0  0  0  0  0  0  0  0
   -3.8226    1.5856    0.7875 C   0  0  0  0  0  0  0  0  0  0  0  0
   -1.5839    2.8057    0.8000 C   0  0  0  0  0  0  0  0  0  0  0  0
   -3.1538    0.3038   -1.2204 C   0  0  0  0  0  0  0  0  0  0  0  0
   -0.9098    1.4063   -1.1582 C   0  0  0  0  0  0  0  0  0  0  0  0
    0.0345    0.7445   -1.8479 C   0  0  0  0  0  0  0  0  0  0  0  0
    0.6720    1.8559    0.6648 C   0  0  0  0  0  0  0  0  0  0  0  0
   -3.0072   -0.7239    1.1099 C   0  0  0  0  0  0  0  0  0  0  0  0
    1.6877    1.0875   -0.1228 C   0  0  0  0  0  0  0  0  0  0  0  0
    1.3582    0.5827   -1.3164 C   0  0  0  0  0  0  0  0  0  0  0  0
   -2.4577   -1.9542    0.5310 C   0  0  0  0  0  0  0  0  0  0  0  0
   -1.0887   -2.1189    0.3813 C   0  0  0  0  0  0  0  0  0  0  0  0
   -3.2911   -2.9781    0.1220 C   0  0  0  0  0  0  0  0  0  0  0  0
    3.7543   -0.1557    0.1605 C   0  0  0  0  0  0  0  0  0  0  0  0
    5.0737   -0.0368    0.8969 C   0  0  0  0  0  0  0  0  0  0  0  0
   -0.5970   -3.2969   -0.1700 C   0  0  0  0  0  0  0  0  0  0  0  0
   -1.5112   -4.2662   -0.5500 C   0  0  0  0  0  0  0  0  0  0  0  0
    7.3973   -0.6434    0.8253 C   0  0  0  0  0  0  0  0  0  0  0  0
    6.2090   -0.1967   -1.2145 C   0  0  0  0  0  0  0  0  0  0  0  0
   -3.5285    3.7031    0.6361 H   0  0  0  0  0  0  0  0  0  0  0  0
   -2.2997    1.4999   -2.7997 H   0  0  0  0  0  0  0  0  0  0  0  0
   -2.4394    3.6795   -1.6200 H   0  0  0  0  0  0  0  0  0  0  0  0
   -4.0087    2.8743   -1.6548 H   0  0  0  0  0  0  0  0  0  0  0  0
   -3.8166    1.5645    1.8824 H   0  0  0  0  0  0  0  0  0  0  0  0
   -4.8700    1.6681    0.4725 H   0  0  0  0  0  0  0  0  0  0  0  0
   -1.1942    3.8312    0.7402 H   0  0  0  0  0  0  0  0  0  0  0  0
   -1.5617    2.5369    1.8637 H   0  0  0  0  0  0  0  0  0  0  0  0
   -4.1622    0.3475   -1.6503 H   0  0  0  0  0  0  0  0  0  0  0  0
   -2.7040   -0.6302   -1.5656 H   0  0  0  0  0  0  0  0  0  0  0  0
   -0.1790    0.2886   -2.8091 H   0  0  0  0  0  0  0  0  0  0  0  0
    2.0527    0.0635   -1.9661 H   0  0  0  0  0  0  0  0  0  0  0  0
    3.1677    1.5412    1.1967 H   0  0  0  0  0  0  0  0  0  0  0  0
   -0.3963   -1.3449    0.6981 H   0  0  0  0  0  0  0  0  0  0  0  0
   -4.3700   -2.9020    0.2154 H   0  0  0  0  0  0  0  0  0  0  0  0
    4.9347   -0.4961    1.8827 H   0  0  0  0  0  0  0  0  0  0  0  0
    5.3326    1.0193    1.0444 H   0  0  0  0  0  0  0  0  0  0  0  0
    0.4684   -3.4515   -0.2965 H   0  0  0  0  0  0  0  0  0  0  0  0
   -1.1788   -5.2031   -0.9847 H   0  0  0  0  0  0  0  0  0  0  0  0
    8.1588   -1.2198    0.2881 H   0  0  0  0  0  0  0  0  0  0  0  0
    7.3315   -1.0725    1.8314 H   0  0  0  0  0  0  0  0  0  0  0  0
    7.7453    0.3923    0.9137 H   0  0  0  0  0  0  0  0  0  0  0  0
    5.3300   -0.3930   -1.8340 H   0  0  0  0  0  0  0  0  0  0  0  0
    7.0414   -0.6759   -1.7445 H   0  0  0  0  0  0  0  0  0  0  0  0
    6.3976    0.8837   -1.2132 H   0  0  0  0  0  0  0  0  0  0  0  0
  1 17  2  0  0  0  0
  2 18  2  0  0  0  0
  3 24  2  0  0  0  0
  4 12  1  0  0  0  0
  4 14  1  0  0  0  0
  4 18  1  0  0  0  0
  5 13  1  0  0  0  0
  5 15  1  0  0  0  0
  5 17  1  0  0  0  0
  6 19  1  0  0  0  0
  6 24  1  0  0  0  0
  6 42  1  0  0  0  0
  7 23  1  0  0  0  0
  7 27  2  0  0  0  0
  8 25  1  0  0  0  0
  8 28  1  0  0  0  0
  8 29  1  0  0  0  0
  9 11  1  0  0  0  0
  9 12  1  0  0  0  0
  9 13  1  0  0  0  0
  9 30  1  0  0  0  0
 10 11  1  0  0  0  0
 10 14  1  0  0  0  0
 10 15  1  0  0  0  0
 10 31  1  0  0  0  0
 11 32  1  0  0  0  0
 11 33  1  0  0  0  0
 12 34  1  0  0  0  0
 12 35  1  0  0  0  0
 13 36  1  0  0  0  0
 13 37  1  0  0  0  0
 14 38  1  0  0  0  0
 14 39  1  0  0  0  0
 15 16  2  0  0  0  0
 16 20  1  0  0  0  0
 16 40  1  0  0  0  0
 17 19  1  0  0  0  0
 18 21  1  0  0  0  0
 19 20  2  0  0  0  0
 20 41  1  0  0  0  0
 21 22  1  0  0  0  0
 21 23  2  0  0  0  0
 22 26  2  0  0  0  0
 22 43  1  0  0  0  0
 23 44  1  0  0  0  0
 24 25  1  0  0  0  0
 25 45  1  0  0  0  0
 25 46  1  0  0  0  0
 26 27  1  0  0  0  0
 26 47  1  0  0  0  0
 27 48  1  0  0  0  0
 28 49  1  0  0  0  0
 28 50  1  0  0  0  0
 28 51  1  0  0  0  0
 29 52  1  0  0  0  0
 29 53  1  0  0  0  0
 29 54  1  0  0  0  0
M  END
> <PUBCHEM_COMPOUND_CID>
11887518

> <PUBCHEM_CONFORMER_RMSD>
0.8

> <PUBCHEM_CONFORMER_DIVERSEORDER>
1
30
36
16
18
23
11
27
5
13
26
34
7
31
9
19
12
29
24
35
25
33
28
15
2
32
6
20
22
14
17
21
4
10
3
8

> <PUBCHEM_MMFF94_PARTIAL_CHARGES>
34
1 -0.57
10 0.14
12 0.3
13 0.3
14 0.3
15 -0.03
16 -0.15
17 0.62
18 0.54
19 0.12
2 -0.57
20 -0.15
21 0.09
22 -0.15
23 0.16
24 0.57
25 0.33
26 -0.15
27 0.16
28 0.27
29 0.27
3 -0.57
4 -0.66
40 0.15
41 0.15
42 0.37
43 0.15
44 0.15
47 0.15
48 0.15
5 -0.47
6 -0.54
7 -0.62
8 -0.81

> <PUBCHEM_EFFECTIVE_ROTOR_COUNT>
7

> <PUBCHEM_PHARMACOPHORE_FEATURES>
10
1 1 acceptor
1 2 acceptor
1 3 acceptor
1 6 donor
1 7 acceptor
1 8 cation
6 4 9 10 11 12 14 rings
6 5 15 16 17 19 20 rings
6 5 9 10 11 13 15 rings
6 7 21 22 23 26 27 rings

> <PUBCHEM_HEAVY_ATOM_COUNT>
29

> <PUBCHEM_ATOM_DEF_STEREO_COUNT>
2

> <PUBCHEM_ATOM_UDEF_STEREO_COUNT>
0

> <PUBCHEM_BOND_DEF_STEREO_COUNT>
0

> <PUBCHEM_BOND_UDEF_STEREO_COUNT>
0

> <PUBCHEM_ISOTOPIC_ATOM_COUNT>
0

> <PUBCHEM_COMPONENT_COUNT>
1

> <PUBCHEM_CACTVS_TAUTO_COUNT>
2

> <PUBCHEM_CONFORMER_ID>
00B5639E00000001

> <PUBCHEM_MMFF94_ENERGY>
88.8661

> <PUBCHEM_FEATURE_SELFOVERLAP>
52.328

> <PUBCHEM_SHAPE_FINGERPRINT>
10483366 6 18337934776351118351
11014199 57 17904768030892136602
11135609 149 17334467885473743455
11524674 6 18341045212038807151
11552529 35 18411134779274064896
12422481 6 17900293864907027457
12633257 1 18058188261160696505
12643181 29 18265893563392504574
13004483 165 18123464153568128455
14020679 6 17988651726921290705
14114206 34 16515949458629087117
14251757 5 18263657306622163486
14844126 61 18408323306466947851
14866123 147 18410854373797569299
15021287 119 16950285088323274916
15230672 131 18118970192465100918
15927050 60 18126000456753203189
19930381 70 17763466115377667091
20775530 9 17977667833240099923
23559900 14 18338223989841043824
3383291 50 18412820300804245531
397830 11 18271513317724460296
4073 2 18342452613900186082
4409770 3 18408316670884601109
484985 159 18335689564015074775
508706 21 18412550911644025270
5265222 85 18334868216155039012
7237137 82 18261961842569708204

> <PUBCHEM_SHAPE_MULTIPOLES>
554.29
11.18
4.51
1.55
28.93
4.48
0.03
1.92
-1.57
-6.44
0.22
-0.51
-0.58
0.41

> <PUBCHEM_SHAPE_SELFOVERLAP>
1197.573

> <PUBCHEM_SHAPE_VOLUME>
297.8

> <PUBCHEM_COORDINATE_TYPE>
2
5
10

$$$$
