71693886
  -OEChem-12032416273D

 42 43  0     1  0  0  0  0  0999 V2000
    2.7700   -2.7323   -1.1777 O   0  0  0  0  0  0  0  0  0  0  0  0
    0.1808   -3.6377   -1.0517 O   0  0  0  0  0  0  0  0  0  0  0  0
    1.1169    1.5904   -1.0044 O   0  0  0  0  0  0  0  0  0  0  0  0
    2.8996    3.4874   -0.3181 O   0  0  0  0  0  0  0  0  0  0  0  0
   -4.4492    1.7070   -0.1770 O   0  0  0  0  0  0  0  0  0  0  0  0
    2.2093   -0.0346    0.2512 N   0  0  0  0  0  0  0  0  0  0  0  0
    0.2127   -1.2754    1.0318 C   0  0  2  0  0  0  0  0  0  0  0  0
    1.3178   -1.1290   -0.0386 C   0  0  2  0  0  0  0  0  0  0  0  0
    2.0363   -2.4769    0.0051 C   0  0  1  0  0  0  0  0  0  0  0  0
   -0.0260   -2.7997    1.1867 C   0  0  0  0  0  0  0  0  0  0  0  0
    0.8942   -3.4723    0.1700 C   0  0  1  0  0  0  0  0  0  0  0  0
   -1.0336   -0.4784    0.7092 C   0  0  0  0  0  0  0  0  0  0  0  0
   -1.7375   -0.7313   -0.4681 C   0  0  0  0  0  0  0  0  0  0  0  0
   -1.4776    0.5091    1.5887 C   0  0  0  0  0  0  0  0  0  0  0  0
    2.0309    1.2434   -0.2613 C   0  0  0  0  0  0  0  0  0  0  0  0
   -2.8854    0.0027   -0.7658 C   0  0  0  0  0  0  0  0  0  0  0  0
   -2.6255    1.2432    1.2911 C   0  0  0  0  0  0  0  0  0  0  0  0
    3.1123    2.1939    0.2062 C   0  0  0  0  0  0  0  0  0  0  0  0
   -3.3296    0.9900    0.1138 C   0  0  0  0  0  0  0  0  0  0  0  0
    3.9040    4.4044    0.1062 C   0  0  0  0  0  0  0  0  0  0  0  0
   -5.1203    1.3962   -1.3973 C   0  0  0  0  0  0  0  0  0  0  0  0
    0.6049   -0.9191    1.9958 H   0  0  0  0  0  0  0  0  0  0  0  0
    0.9113   -0.9644   -1.0440 H   0  0  0  0  0  0  0  0  0  0  0  0
    2.7201   -2.5293    0.8618 H   0  0  0  0  0  0  0  0  0  0  0  0
    0.2787   -3.0955    2.1985 H   0  0  0  0  0  0  0  0  0  0  0  0
   -1.0753   -3.0865    1.0600 H   0  0  0  0  0  0  0  0  0  0  0  0
    1.2444   -4.4575    0.4920 H   0  0  0  0  0  0  0  0  0  0  0  0
    2.9719   -0.1979    0.9027 H   0  0  0  0  0  0  0  0  0  0  0  0
    3.1171   -3.6385   -1.1158 H   0  0  0  0  0  0  0  0  0  0  0  0
   -0.5559   -4.2486   -0.8794 H   0  0  0  0  0  0  0  0  0  0  0  0
   -1.4130   -1.4968   -1.1662 H   0  0  0  0  0  0  0  0  0  0  0  0
   -0.9399    0.7191    2.5093 H   0  0  0  0  0  0  0  0  0  0  0  0
   -3.3841   -0.2457   -1.6965 H   0  0  0  0  0  0  0  0  0  0  0  0
   -2.9664    2.0114    1.9798 H   0  0  0  0  0  0  0  0  0  0  0  0
    3.0943    2.2279    1.3018 H   0  0  0  0  0  0  0  0  0  0  0  0
    4.0816    1.8085   -0.1309 H   0  0  0  0  0  0  0  0  0  0  0  0
    3.6835    5.3817   -0.3313 H   0  0  0  0  0  0  0  0  0  0  0  0
    4.8894    4.0788   -0.2408 H   0  0  0  0  0  0  0  0  0  0  0  0
    3.8990    4.4987    1.1963 H   0  0  0  0  0  0  0  0  0  0  0  0
   -5.9876    2.0610   -1.4675 H   0  0  0  0  0  0  0  0  0  0  0  0
   -5.5034    0.3701   -1.3959 H   0  0  0  0  0  0  0  0  0  0  0  0
   -4.4884    1.6024   -2.2678 H   0  0  0  0  0  0  0  0  0  0  0  0
  1  9  1  0  0  0  0
  1 29  1  0  0  0  0
  2 11  1  0  0  0  0
  2 30  1  0  0  0  0
  3 15  2  0  0  0  0
  4 18  1  0  0  0  0
  4 20  1  0  0  0  0
  5 19  1  0  0  0  0
  5 21  1  0  0  0  0
  6  8  1  0  0  0  0
  6 15  1  0  0  0  0
  6 28  1  0  0  0  0
  7  8  1  0  0  0  0
  7 10  1  0  0  0  0
  7 12  1  0  0  0  0
  7 22  1  0  0  0  0
  8  9  1  0  0  0  0
  8 23  1  0  0  0  0
  9 11  1  0  0  0  0
  9 24  1  0  0  0  0
 10 11  1  0  0  0  0
 10 25  1  0  0  0  0
 10 26  1  0  0  0  0
 11 27  1  0  0  0  0
 12 13  2  0  0  0  0
 12 14  1  0  0  0  0
 13 16  1  0  0  0  0
 13 31  1  0  0  0  0
 14 17  2  0  0  0  0
 14 32  1  0  0  0  0
 15 18  1  0  0  0  0
 16 19  2  0  0  0  0
 16 33  1  0  0  0  0
 17 19  1  0  0  0  0
 17 34  1  0  0  0  0
 18 35  1  0  0  0  0
 18 36  1  0  0  0  0
 20 37  1  0  0  0  0
 20 38  1  0  0  0  0
 20 39  1  0  0  0  0
 21 40  1  0  0  0  0
 21 41  1  0  0  0  0
 21 42  1  0  0  0  0
M  END
> <PUBCHEM_COMPOUND_CID>
71693886

> <PUBCHEM_CONFORMER_RMSD>
0.8

> <PUBCHEM_CONFORMER_DIVERSEORDER>
1
22
2
30
25
31
29
15
5
8
32
14
12
28
3
17
7
35
27
36
16
26
34
13
18
11
6
33
21
24
10
20
23
9
4
19

> <PUBCHEM_MMFF94_PARTIAL_CHARGES>
27
1 -0.68
11 0.28
12 -0.14
13 -0.15
14 -0.15
15 0.57
16 -0.15
17 -0.15
18 0.34
19 0.08
2 -0.68
20 0.28
21 0.28
28 0.37
29 0.4
3 -0.57
30 0.4
31 0.15
32 0.15
33 0.15
34 0.15
4 -0.56
5 -0.36
6 -0.73
7 0.14
8 0.3
9 0.28

> <PUBCHEM_EFFECTIVE_ROTOR_COUNT>
7

> <PUBCHEM_PHARMACOPHORE_FEATURES>
10
1 1 acceptor
1 1 donor
1 2 acceptor
1 2 donor
1 3 acceptor
1 4 acceptor
1 5 acceptor
1 6 donor
5 7 8 9 10 11 rings
6 12 13 14 16 17 19 rings

> <PUBCHEM_HEAVY_ATOM_COUNT>
21

> <PUBCHEM_ATOM_DEF_STEREO_COUNT>
4

> <PUBCHEM_ATOM_UDEF_STEREO_COUNT>
0

> <PUBCHEM_BOND_DEF_STEREO_COUNT>
0

> <PUBCHEM_BOND_UDEF_STEREO_COUNT>
0

> <PUBCHEM_ISOTOPIC_ATOM_COUNT>
0

> <PUBCHEM_COMPONENT_COUNT>
1

> <PUBCHEM_CACTVS_TAUTO_COUNT>
2

> <PUBCHEM_CONFORMER_ID>
0445F63E00000001

> <PUBCHEM_MMFF94_ENERGY>
65.5283

> <PUBCHEM_FEATURE_SELFOVERLAP>
50.766

> <PUBCHEM_SHAPE_FINGERPRINT>
10165383 225 17470224422349739320
104564 63 17184203738294774122
10670039 82 16535402310955603180
11370993 70 18337386170480721504
116883 192 16826716181028859511
12107183 9 18190724510224819032
12293681 4 16678636162823986525
12788726 201 17471556098751225186
13134695 92 18047473318215836078
14142880 1 17755006832983968781
14250199 8 18339928091403774545
16945 1 18195537982234386323
17134986 127 18410013260286507780
17980427 23 18050248618771613394
20510252 161 17692262150152509080
21304303 282 17837741767443827204
21524375 3 18262517125431525538
22289505 5 17755577149217545183
2255824 54 18341049601527239747
22907989 373 17472136653527705388
23402539 116 16905260378881193350
23419403 2 12194025354420144325
23558518 356 18043251455716670754
23559900 14 18265609897443909259
23598291 2 17771354071370778345
238 59 18412271614046460339
2748010 2 18189640356370704370
3060560 45 18196929972513683623
350125 39 18192736620059663394
394222 165 18262498369436393115
4409770 3 17619062176302204846
474 4 18410286995447353745
5939293 188 18264202517938477354
6992083 37 17193207660510340539
7364860 26 18339922593539673987
81228 2 17185904103083626322
84936 182 18343299271011071713
9981440 41 18194957676560416584

> <PUBCHEM_SHAPE_MULTIPOLES>
397.84
7.05
5.12
1.24
5.05
0.09
0.14
-9.17
-2.07
-6.68
-0.62
0.77
0.19
0.58

> <PUBCHEM_SHAPE_SELFOVERLAP>
825.599

> <PUBCHEM_SHAPE_VOLUME>
228.3

> <PUBCHEM_COORDINATE_TYPE>
2
5
10

$$$$
