75536087
  -OEChem-12032416293D

 56 59  0     1  0  0  0  0  0999 V2000
    3.1179    3.4899    1.2547 O   0  0  0  0  0  0  0  0  0  0  0  0
    0.5938    4.4943    0.8558 O   0  0  0  0  0  0  0  0  0  0  0  0
    1.2624   -0.7339    1.2116 O   0  0  0  0  0  0  0  0  0  0  0  0
   -6.5566   -1.9261    0.7931 O   0  0  0  0  0  0  0  0  0  0  0  0
    2.5468    0.7308   -0.0472 N   0  0  0  0  0  0  0  0  0  0  0  0
   -2.5920    1.0157    0.5746 N   0  0  0  0  0  0  0  0  0  0  0  0
   -4.1910   -0.6319    0.0005 N   0  0  0  0  0  0  0  0  0  0  0  0
    0.6819    2.0016   -1.0680 C   0  0  2  0  0  0  0  0  0  0  0  0
    1.6881    1.8787    0.0986 C   0  0  2  0  0  0  0  0  0  0  0  0
    2.4713    3.1891    0.0324 C   0  0  1  0  0  0  0  0  0  0  0  0
    0.5296    3.5212   -1.3362 C   0  0  0  0  0  0  0  0  0  0  0  0
    1.3953    4.2193   -0.2891 C   0  0  1  0  0  0  0  0  0  0  0  0
   -0.6231    1.2811   -0.8029 C   0  0  0  0  0  0  0  0  0  0  0  0
   -1.0601    0.2583   -1.6374 C   0  0  0  0  0  0  0  0  0  0  0  0
   -1.4185    1.6190    0.2801 C   0  0  0  0  0  0  0  0  0  0  0  0
    2.2570   -0.4979    0.5307 C   0  0  0  0  0  0  0  0  0  0  0  0
   -2.2622   -0.3862   -1.3671 C   0  0  0  0  0  0  0  0  0  0  0  0
   -2.9844    0.0262   -0.2589 C   0  0  0  0  0  0  0  0  0  0  0  0
    3.2567   -1.5742    0.3087 C   0  0  0  0  0  0  0  0  0  0  0  0
   -5.2629    0.1216    0.6656 C   0  0  0  0  0  0  0  0  0  0  0  0
   -4.1970   -2.0777    0.2489 C   0  0  0  0  0  0  0  0  0  0  0  0
   -6.6048   -0.5532    0.4049 C   0  0  0  0  0  0  0  0  0  0  0  0
   -5.5960   -2.6353    0.0113 C   0  0  0  0  0  0  0  0  0  0  0  0
    2.9085   -2.7598   -0.3384 C   0  0  0  0  0  0  0  0  0  0  0  0
    4.5627   -1.3835    0.7597 C   0  0  0  0  0  0  0  0  0  0  0  0
    3.8664   -3.7546   -0.5346 C   0  0  0  0  0  0  0  0  0  0  0  0
    1.5172   -2.9902   -0.8316 C   0  0  0  0  0  0  0  0  0  0  0  0
    5.5206   -2.3783    0.5636 C   0  0  0  0  0  0  0  0  0  0  0  0
    5.1725   -3.5638   -0.0836 C   0  0  0  0  0  0  0  0  0  0  0  0
    1.1313    1.5645   -1.9720 H   0  0  0  0  0  0  0  0  0  0  0  0
    1.1921    1.8000    1.0739 H   0  0  0  0  0  0  0  0  0  0  0  0
    3.2242    3.1561   -0.7653 H   0  0  0  0  0  0  0  0  0  0  0  0
    0.9290    3.7370   -2.3352 H   0  0  0  0  0  0  0  0  0  0  0  0
   -0.5118    3.8595   -1.3153 H   0  0  0  0  0  0  0  0  0  0  0  0
    1.8172    5.1655   -0.6406 H   0  0  0  0  0  0  0  0  0  0  0  0
    3.3735    0.8180   -0.6317 H   0  0  0  0  0  0  0  0  0  0  0  0
    3.5121    4.3744    1.1664 H   0  0  0  0  0  0  0  0  0  0  0  0
   -0.0961    5.1239    0.5849 H   0  0  0  0  0  0  0  0  0  0  0  0
   -0.4758   -0.0455   -2.5015 H   0  0  0  0  0  0  0  0  0  0  0  0
   -1.1417    2.4082    0.9705 H   0  0  0  0  0  0  0  0  0  0  0  0
   -2.6087   -1.1746   -2.0271 H   0  0  0  0  0  0  0  0  0  0  0  0
   -5.3083    1.1534    0.2972 H   0  0  0  0  0  0  0  0  0  0  0  0
   -5.0630    0.1474    1.7439 H   0  0  0  0  0  0  0  0  0  0  0  0
   -3.8998   -2.2524    1.2903 H   0  0  0  0  0  0  0  0  0  0  0  0
   -3.4896   -2.6119   -0.3943 H   0  0  0  0  0  0  0  0  0  0  0  0
   -6.8886   -0.4834   -0.6522 H   0  0  0  0  0  0  0  0  0  0  0  0
   -7.3889   -0.0645    0.9918 H   0  0  0  0  0  0  0  0  0  0  0  0
   -5.6330   -3.6884    0.3077 H   0  0  0  0  0  0  0  0  0  0  0  0
   -5.8741   -2.5784   -1.0481 H   0  0  0  0  0  0  0  0  0  0  0  0
    4.8484   -0.4671    1.2698 H   0  0  0  0  0  0  0  0  0  0  0  0
    3.6117   -4.6847   -1.0357 H   0  0  0  0  0  0  0  0  0  0  0  0
    0.8306   -3.1310    0.0092 H   0  0  0  0  0  0  0  0  0  0  0  0
    1.1767   -2.1489   -1.4440 H   0  0  0  0  0  0  0  0  0  0  0  0
    1.4547   -3.8844   -1.4616 H   0  0  0  0  0  0  0  0  0  0  0  0
    6.5373   -2.2303    0.9157 H   0  0  0  0  0  0  0  0  0  0  0  0
    5.9183   -4.3385   -0.2358 H   0  0  0  0  0  0  0  0  0  0  0  0
  1 10  1  0  0  0  0
  1 37  1  0  0  0  0
  2 12  1  0  0  0  0
  2 38  1  0  0  0  0
  3 16  2  0  0  0  0
  4 22  1  0  0  0  0
  4 23  1  0  0  0  0
  5  9  1  0  0  0  0
  5 16  1  0  0  0  0
  5 36  1  0  0  0  0
  6 15  1  0  0  0  0
  6 18  2  0  0  0  0
  7 18  1  0  0  0  0
  7 20  1  0  0  0  0
  7 21  1  0  0  0  0
  8  9  1  0  0  0  0
  8 11  1  0  0  0  0
  8 13  1  0  0  0  0
  8 30  1  0  0  0  0
  9 10  1  0  0  0  0
  9 31  1  0  0  0  0
 10 12  1  0  0  0  0
 10 32  1  0  0  0  0
 11 12  1  0  0  0  0
 11 33  1  0  0  0  0
 11 34  1  0  0  0  0
 12 35  1  0  0  0  0
 13 14  1  0  0  0  0
 13 15  2  0  0  0  0
 14 17  2  0  0  0  0
 14 39  1  0  0  0  0
 15 40  1  0  0  0  0
 16 19  1  0  0  0  0
 17 18  1  0  0  0  0
 17 41  1  0  0  0  0
 19 24  1  0  0  0  0
 19 25  2  0  0  0  0
 20 22  1  0  0  0  0
 20 42  1  0  0  0  0
 20 43  1  0  0  0  0
 21 23  1  0  0  0  0
 21 44  1  0  0  0  0
 21 45  1  0  0  0  0
 22 46  1  0  0  0  0
 22 47  1  0  0  0  0
 23 48  1  0  0  0  0
 23 49  1  0  0  0  0
 24 26  2  0  0  0  0
 24 27  1  0  0  0  0
 25 28  1  0  0  0  0
 25 50  1  0  0  0  0
 26 29  1  0  0  0  0
 26 51  1  0  0  0  0
 27 52  1  0  0  0  0
 27 53  1  0  0  0  0
 27 54  1  0  0  0  0
 28 29  2  0  0  0  0
 28 55  1  0  0  0  0
 29 56  1  0  0  0  0
M  END
> <PUBCHEM_COMPOUND_CID>
75536087

> <PUBCHEM_CONFORMER_RMSD>
0.8

> <PUBCHEM_CONFORMER_DIVERSEORDER>
1
135
151
30
117
158
70
75
120
110
164
121
71
53
89
162
166
84
168
145
36
138
116
56
170
20
161
91
76
157
49
45
27
113
108
150
4
99
41
149
152
159
92
119
87
93
35
90
123
72
57
80
62
94
42
142
15
44
130
126
129
124
64
133
2
8
47
40
50
68
67
155
6
38
156
69
58
134
59
101
103
95
31
77
97
10
48
136
167
28
11
26
148
165
60
122
74
54
102
137
109
160
66
153
37
146
104
114
106
46
98
100
51
61
73
127
83
18
169
88
96
132
140
33
16
81
85
128
63
14
115
22
107
147
55
118
43
34
79
144
131
29
82
105
111
23
39
65
24
12
171
112
13
25
154
163
5
17
141
143
32
139
21
19
86
78
9
52
7
125
3

> <PUBCHEM_MMFF94_PARTIAL_CHARGES>
38
1 -0.68
10 0.28
12 0.28
13 -0.14
14 -0.15
15 0.16
16 0.54
17 -0.15
18 0.41
19 0.09
2 -0.68
20 0.37
21 0.37
22 0.28
23 0.28
24 -0.14
25 -0.15
26 -0.15
27 0.14
28 -0.15
29 -0.15
3 -0.57
36 0.37
37 0.4
38 0.4
39 0.15
4 -0.56
40 0.15
41 0.15
5 -0.73
50 0.15
51 0.15
55 0.15
56 0.15
6 -0.62
7 -0.84
8 0.14
9 0.3

> <PUBCHEM_EFFECTIVE_ROTOR_COUNT>
7.2

> <PUBCHEM_PHARMACOPHORE_FEATURES>
12
1 1 acceptor
1 1 donor
1 2 acceptor
1 2 donor
1 3 acceptor
1 4 acceptor
1 5 donor
3 6 7 18 cation
5 8 9 10 11 12 rings
6 19 24 25 26 28 29 rings
6 4 7 20 21 22 23 rings
6 6 13 14 15 17 18 rings

> <PUBCHEM_HEAVY_ATOM_COUNT>
29

> <PUBCHEM_ATOM_DEF_STEREO_COUNT>
4

> <PUBCHEM_ATOM_UDEF_STEREO_COUNT>
0

> <PUBCHEM_BOND_DEF_STEREO_COUNT>
0

> <PUBCHEM_BOND_UDEF_STEREO_COUNT>
0

> <PUBCHEM_ISOTOPIC_ATOM_COUNT>
0

> <PUBCHEM_COMPONENT_COUNT>
1

> <PUBCHEM_CACTVS_TAUTO_COUNT>
2

> <PUBCHEM_CONFORMER_ID>
048096D700000001

> <PUBCHEM_MMFF94_ENERGY>
98.3746

> <PUBCHEM_FEATURE_SELFOVERLAP>
60.908

> <PUBCHEM_SHAPE_FINGERPRINT>
11014199 57 18339928095545832592
11135926 11 18193828465059942564
114674 6 18041274464932002811
11513181 2 18054797448732084191
12107183 9 18268721519946273785
12553582 1 18340758252937329982
13402501 40 18337392643255393155
13533116 47 18336550533918275323
13692114 37 17617651498341115378
13785724 45 18270413676324596503
138480 1 18410572894572636460
14251764 30 18336828567967461410
14363568 33 18412818101980975964
14790565 3 17401488646270568125
14863182 85 18190460661186820036
14955137 171 18412263913075146726
15250474 111 18055064630690129487
15475509 84 18130511846961457089
15776043 110 18118138983085328177
15927050 60 17908990151226191422
17492 89 18410013265024521833
17859628 70 18265054802442184269
1813 80 18270410377657656038
19319366 153 17767684223959910269
1979834 28 18266451186515295304
20775530 9 18338505348842756726
21049683 271 18335146410224959580
21197605 99 17612315555891074883
21344244 78 18201994447814922689
21421861 104 18271253815024878133
21716022 299 18115891671085426684
23559900 14 18409724080607934129
2747138 104 18339636730130241234
3117164 225 18340776932061810705
3421961 26 18410011056704683756
4144715 1 18333453153997450481
437815 12 18265044752598630589
50009960 94 17897142818842844443
5104073 3 18269010829196351611
5309563 4 18338515227315133774
56633871 153 18200869591611844351
613672 6 18193813990993702942
6287921 2 18271513308206181754
6695519 79 17403201664302379841
7970288 3 18336827476850751979
86090 222 17386012814268112139
9555976 147 17561094601233149259

> <PUBCHEM_SHAPE_MULTIPOLES>
558.39
12.81
5.93
1.14
14.85
4.43
0.21
-16.65
-3.62
-6.39
0.1
0.02
0.35
0.84

> <PUBCHEM_SHAPE_SELFOVERLAP>
1199.045

> <PUBCHEM_SHAPE_VOLUME>
307.4

> <PUBCHEM_COORDINATE_TYPE>
2
5
10

$$$$
