44715929
  -OEChem-12032416153D

 53 56  0     1  0  0  0  0  0999 V2000
    8.4602    1.6139   -0.5119 F   0  0  0  0  0  0  0  0  0  0  0  0
   -4.9623    1.4041   -1.4021 O   0  0  0  0  0  0  0  0  0  0  0  0
   -2.3045   -1.8293   -0.1608 N   0  0  1  0  0  0  0  0  0  0  0  0
    1.4651   -1.3493    0.3122 N   0  0  0  0  0  0  0  0  0  0  0  0
   -5.6404    0.8019    0.7420 N   0  0  0  0  0  0  0  0  0  0  0  0
    1.6320   -1.0807    1.6173 N   0  0  0  0  0  0  0  0  0  0  0  0
    2.8330   -0.5300    1.7562 N   0  0  0  0  0  0  0  0  0  0  0  0
   -2.3586    0.6096   -1.0674 C   0  0  1  0  0  0  0  0  0  0  0  0
   -3.3715    0.4142    0.0784 C   0  0  2  0  0  0  0  0  0  0  0  0
   -1.0285   -1.1329    0.1607 C   0  0  2  0  0  0  0  0  0  0  0  0
   -0.9661    0.2591   -0.5101 C   0  0  0  0  0  0  0  0  0  0  0  0
   -2.6488   -0.4074   -2.1860 C   0  0  0  0  0  0  0  0  0  0  0  0
   -3.4192   -1.0751    0.4688 C   0  0  0  0  0  0  0  0  0  0  0  0
   -2.5409   -1.8327   -1.6225 C   0  0  0  0  0  0  0  0  0  0  0  0
    0.1961   -1.9834   -0.1839 C   0  0  0  0  0  0  0  0  0  0  0  0
   -4.7319    0.9236   -0.2955 C   0  0  0  0  0  0  0  0  0  0  0  0
   -7.0142    1.2396    0.6453 C   0  0  0  0  0  0  0  0  0  0  0  0
    2.5514   -0.9793   -0.4192 C   0  0  0  0  0  0  0  0  0  0  0  0
    3.4092   -0.4608    0.5181 C   0  0  0  0  0  0  0  0  0  0  0  0
   -7.8920    0.1266    0.0867 C   0  0  0  0  0  0  0  0  0  0  0  0
   -7.5169    1.7098    2.0040 C   0  0  0  0  0  0  0  0  0  0  0  0
    4.7069    0.0722    0.2535 C   0  0  0  0  0  0  0  0  0  0  0  0
    4.9765    0.6738   -0.9758 C   0  0  0  0  0  0  0  0  0  0  0  0
    5.7053   -0.0083    1.2243 C   0  0  0  0  0  0  0  0  0  0  0  0
    6.2443    1.1946   -1.2344 C   0  0  0  0  0  0  0  0  0  0  0  0
    6.9732    0.5124    0.9658 C   0  0  0  0  0  0  0  0  0  0  0  0
    7.2427    1.1139   -0.2636 C   0  0  0  0  0  0  0  0  0  0  0  0
   -2.3681    1.6320   -1.4605 H   0  0  0  0  0  0  0  0  0  0  0  0
   -3.0358    1.0050    0.9427 H   0  0  0  0  0  0  0  0  0  0  0  0
   -1.0130   -0.9812    1.2496 H   0  0  0  0  0  0  0  0  0  0  0  0
   -0.6590    1.0109    0.2273 H   0  0  0  0  0  0  0  0  0  0  0  0
   -0.2336    0.2881   -1.3259 H   0  0  0  0  0  0  0  0  0  0  0  0
   -3.6392   -0.2557   -2.6258 H   0  0  0  0  0  0  0  0  0  0  0  0
   -1.9235   -0.2802   -2.9992 H   0  0  0  0  0  0  0  0  0  0  0  0
   -3.3456   -1.1719    1.5598 H   0  0  0  0  0  0  0  0  0  0  0  0
   -4.3722   -1.5493    0.1996 H   0  0  0  0  0  0  0  0  0  0  0  0
   -1.7481   -2.3855   -2.1391 H   0  0  0  0  0  0  0  0  0  0  0  0
   -3.4620   -2.3873   -1.8433 H   0  0  0  0  0  0  0  0  0  0  0  0
    0.3323   -2.1236   -1.2613 H   0  0  0  0  0  0  0  0  0  0  0  0
    0.1633   -2.9650    0.3028 H   0  0  0  0  0  0  0  0  0  0  0  0
   -5.3484    0.3518    1.6048 H   0  0  0  0  0  0  0  0  0  0  0  0
   -7.0514    2.0871   -0.0499 H   0  0  0  0  0  0  0  0  0  0  0  0
    2.6078   -1.1196   -1.4899 H   0  0  0  0  0  0  0  0  0  0  0  0
   -8.9312    0.4576   -0.0087 H   0  0  0  0  0  0  0  0  0  0  0  0
   -7.5448   -0.1860   -0.9042 H   0  0  0  0  0  0  0  0  0  0  0  0
   -7.8724   -0.7567    0.7349 H   0  0  0  0  0  0  0  0  0  0  0  0
   -8.5456    2.0784    1.9350 H   0  0  0  0  0  0  0  0  0  0  0  0
   -6.8910    2.5221    2.3894 H   0  0  0  0  0  0  0  0  0  0  0  0
   -7.4938    0.8985    2.7402 H   0  0  0  0  0  0  0  0  0  0  0  0
    4.2181    0.7632   -1.7496 H   0  0  0  0  0  0  0  0  0  0  0  0
    5.5190   -0.4759    2.1882 H   0  0  0  0  0  0  0  0  0  0  0  0
    6.4542    1.6653   -2.1904 H   0  0  0  0  0  0  0  0  0  0  0  0
    7.7512    0.4492    1.7209 H   0  0  0  0  0  0  0  0  0  0  0  0
  1 27  1  0  0  0  0
  2 16  2  0  0  0  0
  3 10  1  0  0  0  0
  3 13  1  0  0  0  0
  3 14  1  0  0  0  0
  4  6  1  0  0  0  0
  4 15  1  0  0  0  0
  4 18  1  0  0  0  0
  5 16  1  0  0  0  0
  5 17  1  0  0  0  0
  5 41  1  0  0  0  0
  6  7  2  0  0  0  0
  7 19  1  0  0  0  0
  8  9  1  0  0  0  0
  8 11  1  0  0  0  0
  8 12  1  0  0  0  0
  8 28  1  0  0  0  0
  9 13  1  0  0  0  0
  9 16  1  0  0  0  0
  9 29  1  0  0  0  0
 10 11  1  0  0  0  0
 10 15  1  0  0  0  0
 10 30  1  0  0  0  0
 11 31  1  0  0  0  0
 11 32  1  0  0  0  0
 12 14  1  0  0  0  0
 12 33  1  0  0  0  0
 12 34  1  0  0  0  0
 13 35  1  0  0  0  0
 13 36  1  0  0  0  0
 14 37  1  0  0  0  0
 14 38  1  0  0  0  0
 15 39  1  0  0  0  0
 15 40  1  0  0  0  0
 17 20  1  0  0  0  0
 17 21  1  0  0  0  0
 17 42  1  0  0  0  0
 18 19  2  0  0  0  0
 18 43  1  0  0  0  0
 19 22  1  0  0  0  0
 20 44  1  0  0  0  0
 20 45  1  0  0  0  0
 20 46  1  0  0  0  0
 21 47  1  0  0  0  0
 21 48  1  0  0  0  0
 21 49  1  0  0  0  0
 22 23  2  0  0  0  0
 22 24  1  0  0  0  0
 23 25  1  0  0  0  0
 23 50  1  0  0  0  0
 24 26  2  0  0  0  0
 24 51  1  0  0  0  0
 25 27  2  0  0  0  0
 25 52  1  0  0  0  0
 26 27  1  0  0  0  0
 26 53  1  0  0  0  0
M  END
> <PUBCHEM_COMPOUND_CID>
44715929

> <PUBCHEM_CONFORMER_RMSD>
0.8

> <PUBCHEM_CONFORMER_DIVERSEORDER>
1
49
10
97
88
94
108
45
37
72
119
116
112
11
91
100
70
124
84
68
114
118
123
69
48
99
34
129
63
130
65
87
59
32
105
27
127
39
95
80
85
110
109
106
28
93
6
122
131
41
115
17
66
35
111
46
89
4
26
54
43
117
104
47
38
77
12
55
75
16
53
113
79
86
18
40
44
30
57
98
36
76
81
24
121
31
92
125
62
8
50
82
21
74
25
71
73
120
9
52
13
107
102
5
56
22
51
126
61
2
19
23
33
103
7
78
15
29
3
90
64
67
83
101
60
128
14
58
96
42
20

> <PUBCHEM_MMFF94_PARTIAL_CHARGES>
28
1 -0.19
10 0.27
13 0.27
14 0.27
15 0.26
16 0.57
17 0.3
18 -0.3
19 0.17
2 -0.57
22 0.05
23 -0.15
24 -0.15
25 -0.15
26 -0.15
27 0.19
3 -0.81
4 0.31
41 0.37
43 0.15
5 -0.73
50 0.15
51 0.15
52 0.15
53 0.15
6 -0.42
7 -0.23
9 0.06

> <PUBCHEM_EFFECTIVE_ROTOR_COUNT>
7.2

> <PUBCHEM_PHARMACOPHORE_FEATURES>
7
1 2 acceptor
1 3 cation
1 5 donor
3 17 20 21 hydrophobe
5 4 6 7 18 19 rings
6 22 23 24 25 26 27 rings
8 3 8 9 10 11 12 13 14 rings

> <PUBCHEM_HEAVY_ATOM_COUNT>
27

> <PUBCHEM_ATOM_DEF_STEREO_COUNT>
2

> <PUBCHEM_ATOM_UDEF_STEREO_COUNT>
1

> <PUBCHEM_BOND_DEF_STEREO_COUNT>
0

> <PUBCHEM_BOND_UDEF_STEREO_COUNT>
0

> <PUBCHEM_ISOTOPIC_ATOM_COUNT>
0

> <PUBCHEM_COMPONENT_COUNT>
1

> <PUBCHEM_CACTVS_TAUTO_COUNT>
2

> <PUBCHEM_CONFORMER_ID>
02AA4F9900000001

> <PUBCHEM_MMFF94_ENERGY>
57.6419

> <PUBCHEM_FEATURE_SELFOVERLAP>
35.52

> <PUBCHEM_SHAPE_FINGERPRINT>
10 15 17603305950979198745
106641 1 18040158427192737385
10670039 82 14476967740642409707
10835480 77 14764335090281606410
11135609 201 18040148539502931616
11724838 91 17821449075452821751
12120059 9 14996281432121695643
12236239 1 18040989666515520970
12596602 18 16515678897275513041
12760667 363 8358254856982904919
12954195 1 11815621844560010179
13177829 20 16877666768449920433
13668630 136 12031789175890621172
13914758 101 11600013145743135555
14251764 18 18335138704947862177
15183329 4 14764632988442843690
15188451 53 10953457436020367414
15510800 12 10737575960222437913
15519825 34 14562820975313822233
15690457 1 8142084239232380224
15706992 2 17774736298931303297
1577012 14 18260542355999887454
15778101 99 18341895216221425942
17857418 61 11671788182799550830
20028762 73 11891337543194289912
20505436 4 18412822477983730767
21033648 29 18270950367317208826
21304304 249 8214142954378195952
21315764 119 15913609475531469980
21756936 100 18187079607202322266
21792934 111 14779266423842792935
221357 26 15410895145888447954
22224240 67 17095242523005682571
22393880 68 16199854155411501606
23198884 109 16200433563568402195
23559900 14 11815311828913752299
23576562 1 16486391297037368201
24771293 8 18410578362667865381
2838139 119 18260257586746441900
3004659 81 13254792430454300062
3633792 109 12463568473901414938
4098825 35 14117805695723000121
5104073 3 16806159008316072424
5385378 56 18335700499655951050
559249 180 11095892570191916055
5718773 13 7853566903187971897
5758199 1 18341898472444621699
59682541 35 16153713141087562152
59682541 52 15339124520343615852
9689198 14 17846504708014520777
9953998 17 16588027930972526609

> <PUBCHEM_SHAPE_MULTIPOLES>
517.6
23.41
1.77
1.59
7.45
0.36
0.16
-16.87
0.75
-2.09
-0.08
0.41
-0.08
-1.61

> <PUBCHEM_SHAPE_SELFOVERLAP>
1108.775

> <PUBCHEM_SHAPE_VOLUME>
288

> <PUBCHEM_COORDINATE_TYPE>
2
5
10

$$$$
