75536609
  -OEChem-12032416303D

 44 46  0     1  0  0  0  0  0999 V2000
    7.4048   -0.6922    0.4740 S   0  0  0  0  0  0  0  0  0  0  0  0
    1.2484    0.7758    0.3845 O   0  0  0  0  0  0  0  0  0  0  0  0
    0.2788   -2.3974   -0.9925 O   0  0  0  0  0  0  0  0  0  0  0  0
    4.8494   -1.6804   -0.6191 O   0  0  0  0  0  0  0  0  0  0  0  0
   -2.1014   -0.5716   -0.0561 N   0  0  0  0  0  0  0  0  0  0  0  0
    3.7830    0.3596   -0.9096 N   0  0  0  0  0  0  0  0  0  0  0  0
   -7.4026    2.9076   -0.9965 N   0  0  0  0  0  0  0  0  0  0  0  0
   -0.6972   -0.5851    0.3202 C   0  0  1  0  0  0  0  0  0  0  0  0
    0.2315   -0.9960   -0.8074 C   0  0  1  0  0  0  0  0  0  0  0  0
    1.5602   -0.4441   -0.3088 C   0  0  1  0  0  0  0  0  0  0  0  0
   -0.1628    0.7962    0.6618 C   0  0  0  0  0  0  0  0  0  0  0  0
    2.5499   -0.1615   -1.4250 C   0  0  0  0  0  0  0  0  0  0  0  0
   -2.9599   -0.5051    1.1205 C   0  0  0  0  0  0  0  0  0  0  0  0
   -4.4186   -0.4735    0.7492 C   0  0  0  0  0  0  0  0  0  0  0  0
    4.8502   -0.4546   -0.5425 C   0  0  0  0  0  0  0  0  0  0  0  0
   -4.9897    0.7010    0.2591 C   0  0  0  0  0  0  0  0  0  0  0  0
   -5.1989   -1.6207    0.8942 C   0  0  0  0  0  0  0  0  0  0  0  0
    6.0480    0.2380   -0.0014 C   0  0  0  0  0  0  0  0  0  0  0  0
   -6.3410    0.7286   -0.0857 C   0  0  0  0  0  0  0  0  0  0  0  0
   -6.5502   -1.5933    0.5490 C   0  0  0  0  0  0  0  0  0  0  0  0
   -7.1213   -0.4187    0.0592 C   0  0  0  0  0  0  0  0  0  0  0  0
    6.2531    1.5867    0.1899 C   0  0  0  0  0  0  0  0  0  0  0  0
    7.5414    1.8600    0.7338 C   0  0  0  0  0  0  0  0  0  0  0  0
    8.2716    0.7099    0.9375 C   0  0  0  0  0  0  0  0  0  0  0  0
   -6.9267    1.9310   -0.5884 C   0  0  0  0  0  0  0  0  0  0  0  0
   -0.5361   -1.2747    1.1610 H   0  0  0  0  0  0  0  0  0  0  0  0
   -0.0629   -0.5241   -1.7531 H   0  0  0  0  0  0  0  0  0  0  0  0
    2.0151   -1.1271    0.4208 H   0  0  0  0  0  0  0  0  0  0  0  0
   -0.6035    1.5802    0.0350 H   0  0  0  0  0  0  0  0  0  0  0  0
   -0.3219    1.0634    1.7108 H   0  0  0  0  0  0  0  0  0  0  0  0
    2.1550    0.6009   -2.1055 H   0  0  0  0  0  0  0  0  0  0  0  0
    2.7518   -1.0704   -2.0019 H   0  0  0  0  0  0  0  0  0  0  0  0
   -2.3158   -1.4248   -0.5731 H   0  0  0  0  0  0  0  0  0  0  0  0
   -2.7425    0.3935    1.7120 H   0  0  0  0  0  0  0  0  0  0  0  0
   -2.7711   -1.3616    1.7809 H   0  0  0  0  0  0  0  0  0  0  0  0
    0.5390   -2.8085   -0.1508 H   0  0  0  0  0  0  0  0  0  0  0  0
    3.8494    1.3663   -0.8054 H   0  0  0  0  0  0  0  0  0  0  0  0
   -4.3782    1.5942    0.1473 H   0  0  0  0  0  0  0  0  0  0  0  0
   -4.7671   -2.5435    1.2723 H   0  0  0  0  0  0  0  0  0  0  0  0
   -7.1574   -2.4868    0.6612 H   0  0  0  0  0  0  0  0  0  0  0  0
   -8.1760   -0.4133   -0.2055 H   0  0  0  0  0  0  0  0  0  0  0  0
    5.5321    2.3600   -0.0400 H   0  0  0  0  0  0  0  0  0  0  0  0
    7.9136    2.8497    0.9640 H   0  0  0  0  0  0  0  0  0  0  0  0
    9.2726    0.6260    1.3365 H   0  0  0  0  0  0  0  0  0  0  0  0
  1 18  1  0  0  0  0
  1 24  1  0  0  0  0
  2 10  1  0  0  0  0
  2 11  1  0  0  0  0
  3  9  1  0  0  0  0
  3 36  1  0  0  0  0
  4 15  2  0  0  0  0
  5  8  1  0  0  0  0
  5 13  1  0  0  0  0
  5 33  1  0  0  0  0
  6 12  1  0  0  0  0
  6 15  1  0  0  0  0
  6 37  1  0  0  0  0
  7 25  3  0  0  0  0
  8  9  1  0  0  0  0
  8 11  1  0  0  0  0
  8 26  1  0  0  0  0
  9 10  1  0  0  0  0
  9 27  1  0  0  0  0
 10 12  1  0  0  0  0
 10 28  1  0  0  0  0
 11 29  1  0  0  0  0
 11 30  1  0  0  0  0
 12 31  1  0  0  0  0
 12 32  1  0  0  0  0
 13 14  1  0  0  0  0
 13 34  1  0  0  0  0
 13 35  1  0  0  0  0
 14 16  2  0  0  0  0
 14 17  1  0  0  0  0
 15 18  1  0  0  0  0
 16 19  1  0  0  0  0
 16 38  1  0  0  0  0
 17 20  2  0  0  0  0
 17 39  1  0  0  0  0
 18 22  2  0  0  0  0
 19 21  2  0  0  0  0
 19 25  1  0  0  0  0
 20 21  1  0  0  0  0
 20 40  1  0  0  0  0
 21 41  1  0  0  0  0
 22 23  1  0  0  0  0
 22 42  1  0  0  0  0
 23 24  2  0  0  0  0
 23 43  1  0  0  0  0
 24 44  1  0  0  0  0
M  END
> <PUBCHEM_COMPOUND_CID>
75536609

> <PUBCHEM_CONFORMER_RMSD>
1.2

> <PUBCHEM_CONFORMER_DIVERSEORDER>
1
22
42
117
20
119
92
61
94
108
82
70
57
27
121
59
93
107
79
115
10
38
34
76
73
123
2
78
21
64
88
77
69
111
40
95
100
105
110
103
8
71
14
125
4
114
11
45
118
85
68
36
113
97
49
46
12
53
23
65
47
112
24
55
116
37
84
41
74
16
91
124
83
106
122
75
89
43
30
96
60
29
72
102
7
62
5
52
63
6
54
109
101
51
120
26
44
99
17
28
18
90
19
48
86
39
50
87
67
33
58
35
32
80
66
9
15
25
104
3
98
31
56
13
81

> <PUBCHEM_MMFF94_PARTIAL_CHARGES>
35
1 -0.08
10 0.28
11 0.28
12 0.3
13 0.41
14 -0.14
15 0.71
16 -0.15
17 -0.15
18 -0.05
19 0.07
2 -0.56
20 -0.15
21 -0.15
22 -0.15
23 -0.15
24 -0.11
25 0.48
3 -0.68
33 0.36
36 0.4
37 0.37
38 0.15
39 0.15
4 -0.57
40 0.15
41 0.15
42 0.15
43 0.15
44 0.15
5 -0.9
6 -0.73
7 -0.56
8 0.27
9 0.28

> <PUBCHEM_EFFECTIVE_ROTOR_COUNT>
8

> <PUBCHEM_PHARMACOPHORE_FEATURES>
11
1 2 acceptor
1 3 acceptor
1 3 donor
1 4 acceptor
1 5 cation
1 5 donor
1 6 donor
1 7 acceptor
5 1 18 22 23 24 rings
5 2 8 9 10 11 rings
6 14 16 17 19 20 21 rings

> <PUBCHEM_HEAVY_ATOM_COUNT>
25

> <PUBCHEM_ATOM_DEF_STEREO_COUNT>
3

> <PUBCHEM_ATOM_UDEF_STEREO_COUNT>
0

> <PUBCHEM_BOND_DEF_STEREO_COUNT>
0

> <PUBCHEM_BOND_UDEF_STEREO_COUNT>
0

> <PUBCHEM_ISOTOPIC_ATOM_COUNT>
0

> <PUBCHEM_COMPONENT_COUNT>
1

> <PUBCHEM_CACTVS_TAUTO_COUNT>
2

> <PUBCHEM_CONFORMER_ID>
048098E100000001

> <PUBCHEM_MMFF94_ENERGY>
44.5979

> <PUBCHEM_FEATURE_SELFOVERLAP>
55.822

> <PUBCHEM_SHAPE_FINGERPRINT>
10 15 18341051899872624906
10299344 5 11746933192149626272
10429389 143 18344144786873407257
10666366 153 18341339899331790398
10835480 77 18341050731594080101
11315181 36 17847065485210102875
11524674 6 15357981191408444969
11719270 70 18343586226745905446
125118 31 18261115184051509940
12838862 33 17489294305731944312
13673619 4 13623522477061333286
13885169 127 18187082854038887769
13914758 101 17967253091676838816
14251764 18 17968097551288280558
14344974 52 10879982589861042034
14429380 56 16773787117803579064
14598715 104 18340194246190572625
14729087 3 18408322172970160037
14856354 85 11024108750997895491
15131766 46 17829052357943441028
15183329 4 15863789508375675010
15419008 91 18410284818089442748
15849732 13 18413390960123048030
17093844 174 18261112976748952025
20157964 124 17775010077120949294
21150785 3 13183024029681266456
21792934 111 18271235037913286752
22224240 67 17060621114166701462
23035841 295 13479132414761148267
23081809 10 16878518928431750607
23424782 7 10879984766291122340
23559900 14 18272086102831339905
246663 6 11963388536041088848
28498 318 13623519174025461594
3009799 131 18341897389395555256
34797466 226 12391515295901906410
4093350 32 17603862252798182586
4169191 19 18060707186433883385
4339292 15 18129656543754883335
444735 82 18262521511169050620
5381727 24 16225767437761452883
5470011 282 9367348150670747914
5758199 1 15123799486831927639
636775 72 18336544929008066581

> <PUBCHEM_SHAPE_MULTIPOLES>
485.79
27.49
2.01
1.07
8.98
0.67
-0.08
10.39
3.84
-2.4
-0.34
0.23
-0.06
2.47

> <PUBCHEM_SHAPE_SELFOVERLAP>
1016.573

> <PUBCHEM_SHAPE_VOLUME>
274.8

> <PUBCHEM_COORDINATE_TYPE>
2
5
10

$$$$
