25338516
  -OEChem-12032416213D

 56 60  0     1  0  0  0  0  0999 V2000
   -2.5653    3.5747   -0.9004 O   0  0  0  0  0  0  0  0  0  0  0  0
    4.1713    1.9018   -1.1838 O   0  0  0  0  0  0  0  0  0  0  0  0
    4.7682   -0.5191   -0.1686 O   0  0  0  0  0  0  0  0  0  0  0  0
    0.2132    4.0318    1.2181 N   0  0  1  0  0  0  0  0  0  0  0  0
    2.5480    2.2895    0.4357 N   0  0  0  0  0  0  0  0  0  0  0  0
   -1.5425    1.7550   -0.0883 N   0  0  0  0  0  0  0  0  0  0  0  0
   -3.5007    2.5352   -0.9775 N   0  0  0  0  0  0  0  0  0  0  0  0
    2.1467    3.6022   -0.0113 C   0  0  1  0  0  0  0  0  0  0  0  0
   -0.2641    3.9634   -0.1763 C   0  0  1  0  0  0  0  0  0  0  0  0
    0.9727    3.5297   -0.9876 C   0  0  0  0  0  0  0  0  0  0  0  0
    1.6187    4.4424    1.1416 C   0  0  0  0  0  0  0  0  0  0  0  0
   -1.4407    3.0303   -0.3664 C   0  0  0  0  0  0  0  0  0  0  0  0
   -0.5730    4.9346    2.0503 C   0  0  0  0  0  0  0  0  0  0  0  0
    3.5343    1.5473   -0.1956 C   0  0  0  0  0  0  0  0  0  0  0  0
   -2.8235    1.4959   -0.4804 C   0  0  0  0  0  0  0  0  0  0  0  0
    3.7515    0.2119    0.4833 C   0  0  0  0  0  0  0  0  0  0  0  0
   -3.3967    0.1862   -0.3633 C   0  0  0  0  0  0  0  0  0  0  0  0
   -2.6404   -0.8613    0.1632 C   0  0  0  0  0  0  0  0  0  0  0  0
   -4.7073   -0.0386   -0.7742 C   0  0  0  0  0  0  0  0  0  0  0  0
   -3.1870   -2.1493    0.2850 C   0  0  0  0  0  0  0  0  0  0  0  0
   -4.5197   -2.3778   -0.1330 C   0  0  0  0  0  0  0  0  0  0  0  0
   -5.2664   -1.3118   -0.6605 C   0  0  0  0  0  0  0  0  0  0  0  0
    4.6780   -1.8905   -0.1306 C   0  0  0  0  0  0  0  0  0  0  0  0
   -2.4403   -3.2153    0.8124 C   0  0  0  0  0  0  0  0  0  0  0  0
   -5.0662   -3.6658   -0.0114 C   0  0  0  0  0  0  0  0  0  0  0  0
   -2.9993   -4.4885    0.9260 C   0  0  0  0  0  0  0  0  0  0  0  0
   -4.3098   -4.7133    0.5149 C   0  0  0  0  0  0  0  0  0  0  0  0
    4.0726   -2.5198    0.9572 C   0  0  0  0  0  0  0  0  0  0  0  0
    5.1918   -2.6526   -1.1797 C   0  0  0  0  0  0  0  0  0  0  0  0
    3.9810   -3.9113    0.9959 C   0  0  0  0  0  0  0  0  0  0  0  0
    5.1002   -4.0438   -1.1413 C   0  0  0  0  0  0  0  0  0  0  0  0
    4.4948   -4.6732   -0.0535 C   0  0  0  0  0  0  0  0  0  0  0  0
    3.0110    4.0832   -0.4828 H   0  0  0  0  0  0  0  0  0  0  0  0
   -0.5518    4.9661   -0.5240 H   0  0  0  0  0  0  0  0  0  0  0  0
    0.8711    2.5353   -1.4380 H   0  0  0  0  0  0  0  0  0  0  0  0
    1.1310    4.2459   -1.8036 H   0  0  0  0  0  0  0  0  0  0  0  0
    2.1495    4.2544    2.0810 H   0  0  0  0  0  0  0  0  0  0  0  0
    1.7051    5.5085    0.8941 H   0  0  0  0  0  0  0  0  0  0  0  0
    2.0431    1.8755    1.2145 H   0  0  0  0  0  0  0  0  0  0  0  0
   -1.6122    4.5951    2.1155 H   0  0  0  0  0  0  0  0  0  0  0  0
   -0.5704    5.9621    1.6692 H   0  0  0  0  0  0  0  0  0  0  0  0
   -0.1801    4.9476    3.0728 H   0  0  0  0  0  0  0  0  0  0  0  0
    4.0420    0.3936    1.5244 H   0  0  0  0  0  0  0  0  0  0  0  0
    2.7848   -0.3084    0.4492 H   0  0  0  0  0  0  0  0  0  0  0  0
   -1.6141   -0.6947    0.4874 H   0  0  0  0  0  0  0  0  0  0  0  0
   -5.3268    0.7527   -1.1890 H   0  0  0  0  0  0  0  0  0  0  0  0
   -6.2927   -1.4651   -0.9879 H   0  0  0  0  0  0  0  0  0  0  0  0
   -1.4139   -3.0631    1.1400 H   0  0  0  0  0  0  0  0  0  0  0  0
   -6.0885   -3.8644   -0.3264 H   0  0  0  0  0  0  0  0  0  0  0  0
   -2.4109   -5.3044    1.3356 H   0  0  0  0  0  0  0  0  0  0  0  0
   -4.7444   -5.7048    0.6037 H   0  0  0  0  0  0  0  0  0  0  0  0
    3.6843   -1.9639    1.8055 H   0  0  0  0  0  0  0  0  0  0  0  0
    5.6642   -2.1676   -2.0296 H   0  0  0  0  0  0  0  0  0  0  0  0
    3.5151   -4.4020    1.8454 H   0  0  0  0  0  0  0  0  0  0  0  0
    5.5005   -4.6372   -1.9581 H   0  0  0  0  0  0  0  0  0  0  0  0
    4.4248   -5.7566   -0.0229 H   0  0  0  0  0  0  0  0  0  0  0  0
  1  7  1  0  0  0  0
  1 12  1  0  0  0  0
  2 14  2  0  0  0  0
  3 16  1  0  0  0  0
  3 23  1  0  0  0  0
  4  9  1  0  0  0  0
  4 11  1  0  0  0  0
  4 13  1  0  0  0  0
  5  8  1  0  0  0  0
  5 14  1  0  0  0  0
  5 39  1  0  0  0  0
  6 12  2  0  0  0  0
  6 15  1  0  0  0  0
  7 15  2  0  0  0  0
  8 10  1  0  0  0  0
  8 11  1  0  0  0  0
  8 33  1  0  0  0  0
  9 10  1  0  0  0  0
  9 12  1  0  0  0  0
  9 34  1  0  0  0  0
 10 35  1  0  0  0  0
 10 36  1  0  0  0  0
 11 37  1  0  0  0  0
 11 38  1  0  0  0  0
 13 40  1  0  0  0  0
 13 41  1  0  0  0  0
 13 42  1  0  0  0  0
 14 16  1  0  0  0  0
 15 17  1  0  0  0  0
 16 43  1  0  0  0  0
 16 44  1  0  0  0  0
 17 18  2  0  0  0  0
 17 19  1  0  0  0  0
 18 20  1  0  0  0  0
 18 45  1  0  0  0  0
 19 22  2  0  0  0  0
 19 46  1  0  0  0  0
 20 21  1  0  0  0  0
 20 24  2  0  0  0  0
 21 22  1  0  0  0  0
 21 25  2  0  0  0  0
 22 47  1  0  0  0  0
 23 28  2  0  0  0  0
 23 29  1  0  0  0  0
 24 26  1  0  0  0  0
 24 48  1  0  0  0  0
 25 27  1  0  0  0  0
 25 49  1  0  0  0  0
 26 27  2  0  0  0  0
 26 50  1  0  0  0  0
 27 51  1  0  0  0  0
 28 30  1  0  0  0  0
 28 52  1  0  0  0  0
 29 31  2  0  0  0  0
 29 53  1  0  0  0  0
 30 32  2  0  0  0  0
 30 54  1  0  0  0  0
 31 32  1  0  0  0  0
 31 55  1  0  0  0  0
 32 56  1  0  0  0  0
M  END
> <PUBCHEM_COMPOUND_CID>
25338516

> <PUBCHEM_CONFORMER_RMSD>
1.2

> <PUBCHEM_CONFORMER_DIVERSEORDER>
1
32
93
37
75
4
74
14
79
76
94
13
20
64
10
78
72
30
49
26
95
92
84
88
31
35
61
53
38
12
3
67
15
82
27
73
66
86
40
39
65
52
16
46
59
24
7
9
47
68
19
69
77
85
55
71
36
21
25
51
17
22
45
56
58
44
81
6
28
80
63
11
8
90
50
41
29
62
33
70
34
48
87
43
18
42
91
57
89
5
2
23
83
54
60

> <PUBCHEM_MMFF94_PARTIAL_CHARGES>
42
1 -0.02
11 0.27
12 0.3
13 0.27
14 0.57
15 0.46
16 0.34
17 0.05
18 -0.15
19 -0.15
2 -0.57
22 -0.15
23 0.08
24 -0.15
25 -0.15
26 -0.15
27 -0.15
28 -0.15
29 -0.15
3 -0.36
30 -0.15
31 -0.15
32 -0.15
39 0.37
4 -0.81
45 0.15
46 0.15
47 0.15
48 0.15
49 0.15
5 -0.73
50 0.15
51 0.15
52 0.15
53 0.15
54 0.15
55 0.15
56 0.15
6 -0.57
7 -0.41
8 0.3
9 0.45

> <PUBCHEM_EFFECTIVE_ROTOR_COUNT>
8

> <PUBCHEM_PHARMACOPHORE_FEATURES>
10
1 2 acceptor
1 3 acceptor
1 4 cation
1 5 donor
3 6 7 15 cation
5 1 6 7 12 15 rings
5 4 8 9 10 11 rings
6 17 18 19 20 21 22 rings
6 20 21 24 25 26 27 rings
6 23 28 29 30 31 32 rings

> <PUBCHEM_HEAVY_ATOM_COUNT>
32

> <PUBCHEM_ATOM_DEF_STEREO_COUNT>
2

> <PUBCHEM_ATOM_UDEF_STEREO_COUNT>
0

> <PUBCHEM_BOND_DEF_STEREO_COUNT>
0

> <PUBCHEM_BOND_UDEF_STEREO_COUNT>
0

> <PUBCHEM_ISOTOPIC_ATOM_COUNT>
0

> <PUBCHEM_COMPONENT_COUNT>
1

> <PUBCHEM_CACTVS_TAUTO_COUNT>
2

> <PUBCHEM_CONFORMER_ID>
0182A29400000001

> <PUBCHEM_MMFF94_ENERGY>
81.4099

> <PUBCHEM_FEATURE_SELFOVERLAP>
50.781

> <PUBCHEM_SHAPE_FINGERPRINT>
10075450 59 17547040844442503567
10305334 12 17264122861767153061
10838868 229 18263934405402090779
11285246 1 18113341885912704184
11374522 175 18049430746121492271
117089 54 18412269440946444478
12218070 45 17109573300566457610
13165053 137 17404012626915869851
1361 2 17473262557703401267
14866123 147 17982734069700021825
15320291 9 18339073783807148758
15320467 1 15887154495575688298
15351339 4 18188196603167252539
15419008 42 17757518088283913255
16991981 162 18119815707245879027
17909252 39 18266180728161308408
19301676 85 18338226082228686871
19311894 1 18194682557792782531
19611394 137 17910655598711908794
20501277 246 18058716048327648898
21792965 270 14160876422511234024
22440779 20 15335494895448758892
23559900 14 18410565215313938675
325973 47 18410292484621922750
3383291 50 18050844416946261049
404807 14 18411989053044839515
4394409 98 17322085854818456044
4435113 14 16982656711989725182
4461854 278 17184475854521812712
4756261 7 17973972277082498256
49967989 163 17980783549479391846
50080093 196 17478318095236330166
54324442 115 18266462005469900334
6679774 75 17188454510161377921
86090 222 17691701399069764956

> <PUBCHEM_SHAPE_MULTIPOLES>
621.01
13.2
9.99
1.21
3.41
1.31
0.23
-19.08
-2.58
2.71
2.54
0.41
0.62
1.86

> <PUBCHEM_SHAPE_SELFOVERLAP>
1361.384

> <PUBCHEM_SHAPE_VOLUME>
337.8

> <PUBCHEM_COORDINATE_TYPE>
2
5
10

$$$$
