38029350
  -OEChem-12032416413D

 66 67  0     1  0  0  0  0  0999 V2000
    0.1659    3.3317    0.5006 O   0  0  0  0  0  0  0  0  0  0  0  0
   -2.4426   -3.6623    0.1924 O   0  0  0  0  0  0  0  0  0  0  0  0
    0.3538   -2.7402   -0.9897 O   0  0  0  0  0  0  0  0  0  0  0  0
   -3.4888   -1.9090   -0.9195 N   0  0  0  0  0  0  0  0  0  0  0  0
    1.3390    2.1073   -1.0887 N   0  0  0  0  0  0  0  0  0  0  0  0
    7.0447   -2.3004    1.1218 N   0  0  0  0  0  0  0  0  0  0  0  0
   -2.7432    0.0895    1.2004 C   0  0  1  0  0  0  0  0  0  0  0  0
   -4.1401   -0.0756    0.5513 C   0  0  1  0  0  0  0  0  0  0  0  0
   -2.3374    1.5709    1.2300 C   0  0  0  0  0  0  0  0  0  0  0  0
   -2.2975    2.1923   -0.1789 C   0  0  2  0  0  0  0  0  0  0  0  0
   -2.7033   -0.4877    2.6188 C   0  0  0  0  0  0  0  0  0  0  0  0
   -3.5343    1.8455   -0.9825 C   0  0  0  0  0  0  0  0  0  0  0  0
   -4.3531    0.8373   -0.6334 C   0  0  0  0  0  0  0  0  0  0  0  0
   -4.3847   -1.5283    0.1271 C   0  0  0  0  0  0  0  0  0  0  0  0
   -1.0241    1.7829   -0.9273 C   0  0  0  0  0  0  0  0  0  0  0  0
   -1.2753   -0.8652    2.9997 C   0  0  0  0  0  0  0  0  0  0  0  0
   -3.2833    0.5104    3.6158 C   0  0  0  0  0  0  0  0  0  0  0  0
   -3.8341    2.7140   -2.1725 C   0  0  0  0  0  0  0  0  0  0  0  0
    0.1983    2.5045   -0.4065 C   0  0  0  0  0  0  0  0  0  0  0  0
   -2.5759   -2.9589   -0.8053 C   0  0  0  0  0  0  0  0  0  0  0  0
   -1.7536   -3.1405   -2.0712 C   0  0  0  0  0  0  0  0  0  0  0  0
    2.6534    2.6347   -0.8026 C   0  0  0  0  0  0  0  0  0  0  0  0
   -0.4717   -2.3220   -2.0690 C   0  0  0  0  0  0  0  0  0  0  0  0
    3.6118    1.5580   -0.3829 C   0  0  0  0  0  0  0  0  0  0  0  0
    3.5295    1.0120    0.8981 C   0  0  0  0  0  0  0  0  0  0  0  0
    4.5842    1.1036   -1.2737 C   0  0  0  0  0  0  0  0  0  0  0  0
    4.4198    0.0115    1.2881 C   0  0  0  0  0  0  0  0  0  0  0  0
    5.4744    0.1032   -0.8837 C   0  0  0  0  0  0  0  0  0  0  0  0
    5.3922   -0.4429    0.3971 C   0  0  0  0  0  0  0  0  0  0  0  0
    1.5715   -2.0085   -0.9509 C   0  0  0  0  0  0  0  0  0  0  0  0
    6.3041   -1.4679    0.7971 C   0  0  0  0  0  0  0  0  0  0  0  0
   -2.0074   -0.4504    0.5932 H   0  0  0  0  0  0  0  0  0  0  0  0
   -4.9167    0.1854    1.2812 H   0  0  0  0  0  0  0  0  0  0  0  0
   -1.3742    1.7051    1.7321 H   0  0  0  0  0  0  0  0  0  0  0  0
   -3.0707    2.1624    1.7933 H   0  0  0  0  0  0  0  0  0  0  0  0
   -2.2959    3.2828   -0.0414 H   0  0  0  0  0  0  0  0  0  0  0  0
   -3.2972   -1.4058    2.6743 H   0  0  0  0  0  0  0  0  0  0  0  0
   -5.2526    0.6635   -1.2209 H   0  0  0  0  0  0  0  0  0  0  0  0
   -5.3996   -1.6384   -0.2741 H   0  0  0  0  0  0  0  0  0  0  0  0
   -4.3066   -2.2195    0.9705 H   0  0  0  0  0  0  0  0  0  0  0  0
   -1.0996    2.0284   -1.9934 H   0  0  0  0  0  0  0  0  0  0  0  0
   -0.8465    0.7063   -0.8584 H   0  0  0  0  0  0  0  0  0  0  0  0
   -0.6045   -0.0006    3.0102 H   0  0  0  0  0  0  0  0  0  0  0  0
   -0.8659   -1.6031    2.3012 H   0  0  0  0  0  0  0  0  0  0  0  0
   -1.2517   -1.3118    3.9999 H   0  0  0  0  0  0  0  0  0  0  0  0
   -2.6208    1.3607    3.8085 H   0  0  0  0  0  0  0  0  0  0  0  0
   -3.4183    0.0134    4.5845 H   0  0  0  0  0  0  0  0  0  0  0  0
   -4.2691    0.8802    3.3190 H   0  0  0  0  0  0  0  0  0  0  0  0
   -3.8822    3.7659   -1.8727 H   0  0  0  0  0  0  0  0  0  0  0  0
   -4.7950    2.4615   -2.6336 H   0  0  0  0  0  0  0  0  0  0  0  0
   -3.0643    2.6058   -2.9419 H   0  0  0  0  0  0  0  0  0  0  0  0
   -3.5565   -1.4185   -1.8066 H   0  0  0  0  0  0  0  0  0  0  0  0
    1.2561    1.4279   -1.8398 H   0  0  0  0  0  0  0  0  0  0  0  0
   -2.3605   -2.8855   -2.9472 H   0  0  0  0  0  0  0  0  0  0  0  0
   -1.5152   -4.2087   -2.1424 H   0  0  0  0  0  0  0  0  0  0  0  0
    2.5999    3.4073   -0.0271 H   0  0  0  0  0  0  0  0  0  0  0  0
    3.0010    3.1293   -1.7168 H   0  0  0  0  0  0  0  0  0  0  0  0
    0.0591   -2.4751   -3.0156 H   0  0  0  0  0  0  0  0  0  0  0  0
   -0.7044   -1.2582   -1.9639 H   0  0  0  0  0  0  0  0  0  0  0  0
    2.7754    1.3578    1.6002 H   0  0  0  0  0  0  0  0  0  0  0  0
    4.6585    1.5184   -2.2754 H   0  0  0  0  0  0  0  0  0  0  0  0
    4.3427   -0.4048    2.2897 H   0  0  0  0  0  0  0  0  0  0  0  0
    6.2266   -0.2411   -1.5895 H   0  0  0  0  0  0  0  0  0  0  0  0
    2.1682   -2.3770   -0.1122 H   0  0  0  0  0  0  0  0  0  0  0  0
    1.3707   -0.9450   -0.7945 H   0  0  0  0  0  0  0  0  0  0  0  0
    2.1393   -2.1542   -1.8748 H   0  0  0  0  0  0  0  0  0  0  0  0
  1 19  2  0  0  0  0
  2 20  2  0  0  0  0
  3 23  1  0  0  0  0
  3 30  1  0  0  0  0
  4 14  1  0  0  0  0
  4 20  1  0  0  0  0
  4 52  1  0  0  0  0
  5 19  1  0  0  0  0
  5 22  1  0  0  0  0
  5 53  1  0  0  0  0
  6 31  3  0  0  0  0
  7  8  1  0  0  0  0
  7  9  1  0  0  0  0
  7 11  1  0  0  0  0
  7 32  1  0  0  0  0
  8 13  1  0  0  0  0
  8 14  1  0  0  0  0
  8 33  1  0  0  0  0
  9 10  1  0  0  0  0
  9 34  1  0  0  0  0
  9 35  1  0  0  0  0
 10 12  1  0  0  0  0
 10 15  1  0  0  0  0
 10 36  1  0  0  0  0
 11 16  1  0  0  0  0
 11 17  1  0  0  0  0
 11 37  1  0  0  0  0
 12 13  2  0  0  0  0
 12 18  1  0  0  0  0
 13 38  1  0  0  0  0
 14 39  1  0  0  0  0
 14 40  1  0  0  0  0
 15 19  1  0  0  0  0
 15 41  1  0  0  0  0
 15 42  1  0  0  0  0
 16 43  1  0  0  0  0
 16 44  1  0  0  0  0
 16 45  1  0  0  0  0
 17 46  1  0  0  0  0
 17 47  1  0  0  0  0
 17 48  1  0  0  0  0
 18 49  1  0  0  0  0
 18 50  1  0  0  0  0
 18 51  1  0  0  0  0
 20 21  1  0  0  0  0
 21 23  1  0  0  0  0
 21 54  1  0  0  0  0
 21 55  1  0  0  0  0
 22 24  1  0  0  0  0
 22 56  1  0  0  0  0
 22 57  1  0  0  0  0
 23 58  1  0  0  0  0
 23 59  1  0  0  0  0
 24 25  2  0  0  0  0
 24 26  1  0  0  0  0
 25 27  1  0  0  0  0
 25 60  1  0  0  0  0
 26 28  2  0  0  0  0
 26 61  1  0  0  0  0
 27 29  2  0  0  0  0
 27 62  1  0  0  0  0
 28 29  1  0  0  0  0
 28 63  1  0  0  0  0
 29 31  1  0  0  0  0
 30 64  1  0  0  0  0
 30 65  1  0  0  0  0
 30 66  1  0  0  0  0
M  END
> <PUBCHEM_COMPOUND_CID>
38029350

> <PUBCHEM_CONFORMER_RMSD>
1.2

> <PUBCHEM_CONFORMER_DIVERSEORDER>
1
6
47
77
83
91
35
69
74
17
45
81
58
98
80
65
46
79
76
24
62
38
11
14
26
92
8
70
89
73
33
96
16
34
85
63
13
60
15
20
93
71
41
95
75
59
94
84
27
22
31
49
99
32
82
53
101
100
37
66
102
61
68
51
2
25
55
7
87
3
78
36
88
30
21
43
67
4
5
12
56
50
28
97
23
57
48
42
52
90
86
64
39
18
54
9
10
72
40
19
44
29

> <PUBCHEM_MMFF94_PARTIAL_CHARGES>
33
1 -0.57
10 0.14
12 -0.28
13 -0.29
14 0.3
15 0.06
18 0.14
19 0.57
2 -0.57
20 0.57
21 0.06
22 0.44
23 0.28
24 -0.14
25 -0.15
26 -0.15
27 -0.15
28 -0.15
29 0.07
3 -0.56
30 0.28
31 0.48
38 0.15
4 -0.73
5 -0.73
52 0.37
53 0.37
6 -0.56
60 0.15
61 0.15
62 0.15
63 0.15
8 0.14

> <PUBCHEM_EFFECTIVE_ROTOR_COUNT>
12.8

> <PUBCHEM_PHARMACOPHORE_FEATURES>
9
1 1 acceptor
1 2 acceptor
1 3 acceptor
1 4 donor
1 5 donor
1 6 acceptor
3 11 16 17 hydrophobe
6 24 25 26 27 28 29 rings
6 7 8 9 10 12 13 rings

> <PUBCHEM_HEAVY_ATOM_COUNT>
31

> <PUBCHEM_ATOM_DEF_STEREO_COUNT>
3

> <PUBCHEM_ATOM_UDEF_STEREO_COUNT>
0

> <PUBCHEM_BOND_DEF_STEREO_COUNT>
0

> <PUBCHEM_BOND_UDEF_STEREO_COUNT>
0

> <PUBCHEM_ISOTOPIC_ATOM_COUNT>
0

> <PUBCHEM_COMPONENT_COUNT>
1

> <PUBCHEM_CACTVS_TAUTO_COUNT>
4

> <PUBCHEM_CONFORMER_ID>
0244482600000001

> <PUBCHEM_MMFF94_ENERGY>
57.1814

> <PUBCHEM_FEATURE_SELFOVERLAP>
45.672

> <PUBCHEM_SHAPE_FINGERPRINT>
107951 10 17458903731004232117
10928967 22 18265350554217130484
12104220 1 17561085779211437648
12156800 1 17478271722600203879
12422481 6 18126029245639881259
12633257 1 18058752297488070904
12655364 131 17556861317191414814
13165053 137 18267297629980550579
14040222 220 17242196697539539010
14068700 675 17631165471715482087
14117953 113 18339920398927671277
14279260 333 17605266290988272282
14840074 17 18265630933919255813
14950920 106 17703790336428542752
15001296 14 18192990645826018900
20764821 26 18270135564412644254
20775530 9 17553208014046708223
23559900 14 18040713671606740100
338550 245 18408039611603970942
44062 13 18259980474818531573
463206 1 18337394971063376921
5085150 59 18270951363364584029
508706 21 18411423916240479807
7064713 232 17917446323024005746

> <PUBCHEM_SHAPE_MULTIPOLES>
605.41
12.78
4.23
2.62
22.07
1.41
-2.04
2.99
-2.32
-1.85
2.37
-2.7
0.54
-0.83

> <PUBCHEM_SHAPE_SELFOVERLAP>
1234.8

> <PUBCHEM_SHAPE_VOLUME>
347.3

> <PUBCHEM_COORDINATE_TYPE>
2
5
10

$$$$
