11867385
  -OEChem-12032416373D

 61 65  0     1  0  0  0  0  0999 V2000
    0.0481   -1.5568   -0.7271 O   0  0  0  0  0  0  0  0  0  0  0  0
   -0.5896   -4.0312    0.9684 O   0  0  0  0  0  0  0  0  0  0  0  0
    2.3713   -2.0306    0.7167 O   0  0  0  0  0  0  0  0  0  0  0  0
   -4.5943   -2.3250   -1.6073 O   0  0  0  0  0  0  0  0  0  0  0  0
    2.0292    0.0504    1.6014 O   0  0  0  0  0  0  0  0  0  0  0  0
   -3.0187   -1.5070   -0.1150 N   0  0  0  0  0  0  0  0  0  0  0  0
    3.9498   -0.4587    0.3634 N   0  0  0  0  0  0  0  0  0  0  0  0
   -7.5367    2.9940    0.2137 N   0  0  0  0  0  0  0  0  0  0  0  0
   -1.1809   -2.7153    0.9374 C   0  0  1  0  0  0  0  0  0  0  0  0
   -0.0530   -1.7324    0.6959 C   0  0  1  0  0  0  0  0  0  0  0  0
   -2.0571   -2.5688   -0.2848 C   0  0  2  0  0  0  0  0  0  0  0  0
    1.1431   -2.4643    1.2557 C   0  0  1  0  0  0  0  0  0  0  0  0
   -1.0462   -2.2311   -1.3672 C   0  0  0  0  0  0  0  0  0  0  0  0
    0.8375   -3.9000    0.8925 C   0  0  0  0  0  0  0  0  0  0  0  0
   -4.2244   -1.4751   -0.8015 C   0  0  0  0  0  0  0  0  0  0  0  0
    2.7290   -0.7196    0.9550 C   0  0  0  0  0  0  0  0  0  0  0  0
   -5.0937   -0.3001   -0.5354 C   0  0  0  0  0  0  0  0  0  0  0  0
   -4.9915    0.3424    0.6811 C   0  0  0  0  0  0  0  0  0  0  0  0
   -5.9764    0.1104   -1.5127 C   0  0  0  0  0  0  0  0  0  0  0  0
    4.6758    0.7541    0.3642 C   0  0  0  0  0  0  0  0  0  0  0  0
   -5.8086    1.4448    0.9315 C   0  0  0  0  0  0  0  0  0  0  0  0
   -6.7935    1.2129   -1.2623 C   0  0  0  0  0  0  0  0  0  0  0  0
   -6.7095    1.8801   -0.0403 C   0  0  0  0  0  0  0  0  0  0  0  0
    5.9091    0.8629   -0.2838 C   0  0  0  0  0  0  0  0  0  0  0  0
    4.1090    1.8288    1.0375 C   0  0  0  0  0  0  0  0  0  0  0  0
    6.5907    2.1027   -0.2486 C   0  0  0  0  0  0  0  0  0  0  0  0
    6.4877   -0.2197   -0.9660 C   0  0  0  0  0  0  0  0  0  0  0  0
    4.7792    3.0480    1.0718 C   0  0  0  0  0  0  0  0  0  0  0  0
    6.0121    3.1856    0.4334 C   0  0  0  0  0  0  0  0  0  0  0  0
    7.8308    2.2233   -0.8967 C   0  0  0  0  0  0  0  0  0  0  0  0
    7.7206   -0.0821   -1.6042 C   0  0  0  0  0  0  0  0  0  0  0  0
   -8.8462    3.0908   -0.4000 C   0  0  0  0  0  0  0  0  0  0  0  0
   -7.0937    4.0495    1.1027 C   0  0  0  0  0  0  0  0  0  0  0  0
    8.3910    1.1371   -1.5695 C   0  0  0  0  0  0  0  0  0  0  0  0
   -1.6968   -2.5605    1.8904 H   0  0  0  0  0  0  0  0  0  0  0  0
   -0.2446   -0.7523    1.1404 H   0  0  0  0  0  0  0  0  0  0  0  0
   -2.5911   -3.4909   -0.5389 H   0  0  0  0  0  0  0  0  0  0  0  0
    1.1605   -2.3770    2.3505 H   0  0  0  0  0  0  0  0  0  0  0  0
   -1.4445   -1.5966   -2.1648 H   0  0  0  0  0  0  0  0  0  0  0  0
   -0.6415   -3.1420   -1.8219 H   0  0  0  0  0  0  0  0  0  0  0  0
    1.3082   -4.6113    1.5776 H   0  0  0  0  0  0  0  0  0  0  0  0
    1.1628   -4.1510   -0.1234 H   0  0  0  0  0  0  0  0  0  0  0  0
   -2.7308   -0.7132    0.4476 H   0  0  0  0  0  0  0  0  0  0  0  0
    4.3530   -1.2497   -0.1246 H   0  0  0  0  0  0  0  0  0  0  0  0
   -4.3307    0.0125    1.4760 H   0  0  0  0  0  0  0  0  0  0  0  0
   -6.0484   -0.3935   -2.4720 H   0  0  0  0  0  0  0  0  0  0  0  0
   -5.7325    1.9296    1.9006 H   0  0  0  0  0  0  0  0  0  0  0  0
   -7.4750    1.5339   -2.0450 H   0  0  0  0  0  0  0  0  0  0  0  0
    3.1650    1.8220    1.5589 H   0  0  0  0  0  0  0  0  0  0  0  0
    6.0199   -1.1966   -1.0324 H   0  0  0  0  0  0  0  0  0  0  0  0
    4.3442    3.8946    1.5953 H   0  0  0  0  0  0  0  0  0  0  0  0
    6.5183    4.1479    0.4731 H   0  0  0  0  0  0  0  0  0  0  0  0
    8.3724    3.1669   -0.8827 H   0  0  0  0  0  0  0  0  0  0  0  0
    8.1580   -0.9268   -2.1287 H   0  0  0  0  0  0  0  0  0  0  0  0
   -8.7644    3.4321   -1.4372 H   0  0  0  0  0  0  0  0  0  0  0  0
   -9.4807    3.8078    0.1330 H   0  0  0  0  0  0  0  0  0  0  0  0
   -9.3714    2.1293   -0.3785 H   0  0  0  0  0  0  0  0  0  0  0  0
   -6.0407    4.3016    0.9335 H   0  0  0  0  0  0  0  0  0  0  0  0
   -7.2295    3.7579    2.1495 H   0  0  0  0  0  0  0  0  0  0  0  0
   -7.6668    4.9692    0.9401 H   0  0  0  0  0  0  0  0  0  0  0  0
    9.3507    1.2436   -2.0666 H   0  0  0  0  0  0  0  0  0  0  0  0
  1 10  1  0  0  0  0
  1 13  1  0  0  0  0
  2  9  1  0  0  0  0
  2 14  1  0  0  0  0
  3 12  1  0  0  0  0
  3 16  1  0  0  0  0
  4 15  2  0  0  0  0
  5 16  2  0  0  0  0
  6 11  1  0  0  0  0
  6 15  1  0  0  0  0
  6 43  1  0  0  0  0
  7 16  1  0  0  0  0
  7 20  1  0  0  0  0
  7 44  1  0  0  0  0
  8 23  1  0  0  0  0
  8 32  1  0  0  0  0
  8 33  1  0  0  0  0
  9 10  1  0  0  0  0
  9 11  1  0  0  0  0
  9 35  1  0  0  0  0
 10 12  1  0  0  0  0
 10 36  1  0  0  0  0
 11 13  1  0  0  0  0
 11 37  1  0  0  0  0
 12 14  1  0  0  0  0
 12 38  1  0  0  0  0
 13 39  1  0  0  0  0
 13 40  1  0  0  0  0
 14 41  1  0  0  0  0
 14 42  1  0  0  0  0
 15 17  1  0  0  0  0
 17 18  2  0  0  0  0
 17 19  1  0  0  0  0
 18 21  1  0  0  0  0
 18 45  1  0  0  0  0
 19 22  2  0  0  0  0
 19 46  1  0  0  0  0
 20 24  1  0  0  0  0
 20 25  2  0  0  0  0
 21 23  2  0  0  0  0
 21 47  1  0  0  0  0
 22 23  1  0  0  0  0
 22 48  1  0  0  0  0
 24 26  1  0  0  0  0
 24 27  2  0  0  0  0
 25 28  1  0  0  0  0
 25 49  1  0  0  0  0
 26 29  1  0  0  0  0
 26 30  2  0  0  0  0
 27 31  1  0  0  0  0
 27 50  1  0  0  0  0
 28 29  2  0  0  0  0
 28 51  1  0  0  0  0
 29 52  1  0  0  0  0
 30 34  1  0  0  0  0
 30 53  1  0  0  0  0
 31 34  2  0  0  0  0
 31 54  1  0  0  0  0
 32 55  1  0  0  0  0
 32 56  1  0  0  0  0
 32 57  1  0  0  0  0
 33 58  1  0  0  0  0
 33 59  1  0  0  0  0
 33 60  1  0  0  0  0
 34 61  1  0  0  0  0
M  END
> <PUBCHEM_COMPOUND_CID>
11867385

> <PUBCHEM_CONFORMER_RMSD>
1

> <PUBCHEM_CONFORMER_DIVERSEORDER>
1
57
22
46
62
65
4
72
26
25
63
37
13
29
8
10
51
12
33
27
61
7
32
30
58
66
82
6
14
15
44
59
71
81
9
76
64
17
73
83
67
34
24
16
70
5
48
49
43
23
60
31
54
3
19
47
38
40
42
74
50
53
84
78
35
68
39
52
36
41
45
20
11
77
69
75
21
55
56
28
2
80
79
18

> <PUBCHEM_MMFF94_PARTIAL_CHARGES>
45
1 -0.56
10 0.28
11 0.3
12 0.28
13 0.28
14 0.28
15 0.54
16 0.78
17 0.09
18 -0.15
19 -0.15
2 -0.56
20 0.12
21 -0.15
22 -0.15
23 0.1
25 -0.15
27 -0.15
28 -0.15
29 -0.15
3 -0.43
30 -0.15
31 -0.15
32 0.37
33 0.37
34 -0.15
4 -0.57
43 0.37
44 0.37
45 0.15
46 0.15
47 0.15
48 0.15
49 0.15
5 -0.57
50 0.15
51 0.15
52 0.15
53 0.15
54 0.15
6 -0.73
61 0.15
7 -0.55
8 -0.84
9 0.28

> <PUBCHEM_EFFECTIVE_ROTOR_COUNT>
9.2

> <PUBCHEM_PHARMACOPHORE_FEATURES>
12
1 1 acceptor
1 2 acceptor
1 4 acceptor
1 5 acceptor
1 6 donor
1 7 donor
1 8 cation
5 1 9 10 11 13 rings
5 2 9 10 12 14 rings
6 17 18 19 21 22 23 rings
6 20 24 25 26 28 29 rings
6 24 26 27 30 31 34 rings

> <PUBCHEM_HEAVY_ATOM_COUNT>
34

> <PUBCHEM_ATOM_DEF_STEREO_COUNT>
4

> <PUBCHEM_ATOM_UDEF_STEREO_COUNT>
0

> <PUBCHEM_BOND_DEF_STEREO_COUNT>
0

> <PUBCHEM_BOND_UDEF_STEREO_COUNT>
0

> <PUBCHEM_ISOTOPIC_ATOM_COUNT>
0

> <PUBCHEM_COMPONENT_COUNT>
1

> <PUBCHEM_CACTVS_TAUTO_COUNT>
4

> <PUBCHEM_CONFORMER_ID>
00B514F900000001

> <PUBCHEM_MMFF94_ENERGY>
126.4477

> <PUBCHEM_FEATURE_SELFOVERLAP>
61.64

> <PUBCHEM_SHAPE_FINGERPRINT>
10055352 69 18413108382204944769
10190206 1 17846227630530706817
10864689 126 18130784551229827457
10917259 69 18342460292758756304
10920273 25 18261405441824793405
10930396 42 16153709809385262133
11475781 23 18200025270467120568
11476731 99 18057313088676939304
11621639 336 18192995916042152140
1200032 147 18113335297696837050
12013929 112 18271536303941107334
12013929 29 18264492957008352932
12124843 1 17917705833839430837
13782708 43 12679461997373345355
13944108 23 18268990895345847136
14150022 121 17823428261425027003
14359421 15 12895068488793574477
14394314 77 18334577936775381709
14664723 55 18333733550019452813
14747281 78 18338526244423447038
14931854 50 17917711292541963025
15064981 113 16988566779433847581
15183329 4 17917998295521306558
15320295 40 13614245850218076708
15519825 34 9007060137014756348
15530120 55 16842740910448566132
15803439 3 17203326736409219647
15980000 95 17617091409206159322
16067689 134 18410293601281985533
16728433 281 18262524805139532116
16993427 108 11383839233931634046
17899979 129 18341897329403624471
19303781 99 11023816293610856877
19304152 47 18114185216528391473
2026 5 11312058738505094101
20691028 202 18335420205040612724
21223535 225 18341607174698499908
21424621 283 18408041835711565306
21585482 111 18262234413948228933
23569914 152 17772768082765112926
23569943 247 9655280567994181269
23729398 52 18046346332173891818
25025965 108 11886858098901005028
2748736 6 18336251427357055289
38570 142 18411417319160429122
397830 11 11170177775394470402
3986486 107 18341901805645134068
406291 66 10015578407095240573
4144715 1 17902518413216308058
4169191 19 18335133147561440149
42767 24 12607412074194526433
42767 28 17917989494816962881
44575985 84 18059007260011836304
44880568 143 18193001646081549484
4516262 110 18261948549862425975
4756326 101 16843859058809228608
50009960 94 8718529607232137553
508180 173 18130505335574083368
54583773 228 18339348718745757517
5718773 13 10375869679898102103
57303763 176 18270401582577515856
57634706 229 18041287642018527275
5874358 3 12607410940734675796
6036956 94 18123182404305049489
6201320 221 14691740796956486044
636775 72 18049996985808352520
6636798 310 12829496931101112029
6673363 416 18052817237370075279
6703917 75 18041850634805849522
96874 4 8934990478524554281
9689198 14 18335145297089795263
9896288 288 17678182804791156474
9980921 52 14906522701488208588

> <PUBCHEM_SHAPE_MULTIPOLES>
655.41
27.84
5.07
1.5
2.64
0.37
-0.23
-35.8
-9.81
4.61
1.67
-0.42
0.21
-1.42

> <PUBCHEM_SHAPE_SELFOVERLAP>
1439.94

> <PUBCHEM_SHAPE_VOLUME>
354.6

> <PUBCHEM_COORDINATE_TYPE>
2
5
10

$$$$
