11941662
  -OEChem-12032416313D

 54 57  0     1  0  0  0  0  0999 V2000
   -2.5405   -2.6223   -0.9393 O   0  0  0  0  0  0  0  0  0  0  0  0
   -1.1387   -0.0624   -2.0433 O   0  0  0  0  0  0  0  0  0  0  0  0
   -5.7713    0.0353    0.2350 O   0  0  0  0  0  0  0  0  0  0  0  0
    2.7243    2.2857    1.0368 O   0  0  0  0  0  0  0  0  0  0  0  0
    0.2452   -2.4046    0.3915 N   0  0  0  0  0  0  0  0  0  0  0  0
   -3.7513    0.8136   -0.6053 N   0  0  0  0  0  0  0  0  0  0  0  0
   -5.0444    2.1863    0.7130 N   0  0  0  0  0  0  0  0  0  0  0  0
    2.1043   -0.9799    0.2483 N   0  0  0  0  0  0  0  0  0  0  0  0
    1.7502   -2.3605    2.1913 N   0  0  0  0  0  0  0  0  0  0  0  0
   -1.0797   -0.7506   -0.7825 C   0  0  1  0  0  0  0  0  0  0  0  0
   -2.4757   -1.2610   -0.4828 C   0  0  1  0  0  0  0  0  0  0  0  0
   -0.2470   -2.0045   -0.9086 C   0  0  2  0  0  0  0  0  0  0  0  0
   -3.3764   -0.3822   -1.3205 C   0  0  2  0  0  0  0  0  0  0  0  0
   -1.2499   -3.0195   -1.4254 C   0  0  0  0  0  0  0  0  0  0  0  0
   -2.4949   -0.0567   -2.5132 C   0  0  0  0  0  0  0  0  0  0  0  0
    1.4008   -1.8999    0.9607 C   0  0  0  0  0  0  0  0  0  0  0  0
   -4.9331    0.9292    0.1242 C   0  0  0  0  0  0  0  0  0  0  0  0
   -6.1739    2.5727    1.5253 C   0  0  0  0  0  0  0  0  0  0  0  0
    3.2254   -0.5094    0.8329 C   0  0  0  0  0  0  0  0  0  0  0  0
    2.8822   -1.8475    2.7164 C   0  0  0  0  0  0  0  0  0  0  0  0
    3.6676   -0.9103    2.0771 C   0  0  0  0  0  0  0  0  0  0  0  0
    3.9561    0.4666    0.0603 C   0  0  0  0  0  0  0  0  0  0  0  0
   -7.1849    1.4506    1.6397 C   0  0  0  0  0  0  0  0  0  0  0  0
    3.6866    1.8328    0.1831 C   0  0  0  0  0  0  0  0  0  0  0  0
    4.9492    0.0359   -0.8241 C   0  0  0  0  0  0  0  0  0  0  0  0
    4.4044    2.7602   -0.5721 C   0  0  0  0  0  0  0  0  0  0  0  0
    5.6667    0.9635   -1.5793 C   0  0  0  0  0  0  0  0  0  0  0  0
    5.3944    2.3255   -1.4534 C   0  0  0  0  0  0  0  0  0  0  0  0
    1.4042    2.4134    0.5141 C   0  0  0  0  0  0  0  0  0  0  0  0
   -0.7244   -0.0333   -0.0364 H   0  0  0  0  0  0  0  0  0  0  0  0
   -2.7113   -1.2618    0.5863 H   0  0  0  0  0  0  0  0  0  0  0  0
    0.5775   -1.9168   -1.6255 H   0  0  0  0  0  0  0  0  0  0  0  0
   -4.2875   -0.8964   -1.6445 H   0  0  0  0  0  0  0  0  0  0  0  0
   -1.2968   -2.9996   -2.5199 H   0  0  0  0  0  0  0  0  0  0  0  0
   -1.0452   -4.0475   -1.1106 H   0  0  0  0  0  0  0  0  0  0  0  0
   -2.7149    0.9106   -2.9751 H   0  0  0  0  0  0  0  0  0  0  0  0
   -2.5750   -0.8325   -3.2826 H   0  0  0  0  0  0  0  0  0  0  0  0
   -0.2986   -3.0499    0.9531 H   0  0  0  0  0  0  0  0  0  0  0  0
   -3.0939    1.5873   -0.5780 H   0  0  0  0  0  0  0  0  0  0  0  0
   -4.3024    2.8634    0.5661 H   0  0  0  0  0  0  0  0  0  0  0  0
   -6.6237    3.4584    1.0664 H   0  0  0  0  0  0  0  0  0  0  0  0
   -5.7912    2.8557    2.5107 H   0  0  0  0  0  0  0  0  0  0  0  0
    3.1492   -2.2230    3.6984 H   0  0  0  0  0  0  0  0  0  0  0  0
    4.5695   -0.5239    2.5356 H   0  0  0  0  0  0  0  0  0  0  0  0
   -8.0126    1.8087    2.2659 H   0  0  0  0  0  0  0  0  0  0  0  0
   -6.7954    0.5719    2.1643 H   0  0  0  0  0  0  0  0  0  0  0  0
   -7.6491    1.1900    0.6827 H   0  0  0  0  0  0  0  0  0  0  0  0
    5.1751   -1.0222   -0.9363 H   0  0  0  0  0  0  0  0  0  0  0  0
    4.1984    3.8232   -0.4791 H   0  0  0  0  0  0  0  0  0  0  0  0
    6.4375    0.6253   -2.2656 H   0  0  0  0  0  0  0  0  0  0  0  0
    5.9533    3.0477   -2.0414 H   0  0  0  0  0  0  0  0  0  0  0  0
    0.6955    2.3297    1.3425 H   0  0  0  0  0  0  0  0  0  0  0  0
    1.2914    3.3994    0.0533 H   0  0  0  0  0  0  0  0  0  0  0  0
    1.1757    1.6388   -0.2246 H   0  0  0  0  0  0  0  0  0  0  0  0
  1 11  1  0  0  0  0
  1 14  1  0  0  0  0
  2 10  1  0  0  0  0
  2 15  1  0  0  0  0
  3 17  2  0  0  0  0
  4 24  1  0  0  0  0
  4 29  1  0  0  0  0
  5 12  1  0  0  0  0
  5 16  1  0  0  0  0
  5 38  1  0  0  0  0
  6 13  1  0  0  0  0
  6 17  1  0  0  0  0
  6 39  1  0  0  0  0
  7 17  1  0  0  0  0
  7 18  1  0  0  0  0
  7 40  1  0  0  0  0
  8 16  1  0  0  0  0
  8 19  2  0  0  0  0
  9 16  2  0  0  0  0
  9 20  1  0  0  0  0
 10 11  1  0  0  0  0
 10 12  1  0  0  0  0
 10 30  1  0  0  0  0
 11 13  1  0  0  0  0
 11 31  1  0  0  0  0
 12 14  1  0  0  0  0
 12 32  1  0  0  0  0
 13 15  1  0  0  0  0
 13 33  1  0  0  0  0
 14 34  1  0  0  0  0
 14 35  1  0  0  0  0
 15 36  1  0  0  0  0
 15 37  1  0  0  0  0
 18 23  1  0  0  0  0
 18 41  1  0  0  0  0
 18 42  1  0  0  0  0
 19 21  1  0  0  0  0
 19 22  1  0  0  0  0
 20 21  2  0  0  0  0
 20 43  1  0  0  0  0
 21 44  1  0  0  0  0
 22 24  1  0  0  0  0
 22 25  2  0  0  0  0
 23 45  1  0  0  0  0
 23 46  1  0  0  0  0
 23 47  1  0  0  0  0
 24 26  2  0  0  0  0
 25 27  1  0  0  0  0
 25 48  1  0  0  0  0
 26 28  1  0  0  0  0
 26 49  1  0  0  0  0
 27 28  2  0  0  0  0
 27 50  1  0  0  0  0
 28 51  1  0  0  0  0
 29 52  1  0  0  0  0
 29 53  1  0  0  0  0
 29 54  1  0  0  0  0
M  END
> <PUBCHEM_COMPOUND_CID>
11941662

> <PUBCHEM_CONFORMER_RMSD>
1

> <PUBCHEM_CONFORMER_DIVERSEORDER>
1
364
39
148
290
414
280
387
393
52
243
349
237
94
176
416
254
400
96
426
262
305
17
229
302
80
133
323
53
142
217
204
64
356
20
31
10
197
233
171
299
439
438
139
276
54
351
272
128
325
424
348
271
34
383
410
155
215
222
212
49
359
68
185
279
403
145
156
246
135
30
250
350
397
337
227
83
432
368
199
261
232
140
307
196
259
41
332
274
194
191
187
60
406
90
428
369
214
38
218
377
322
202
169
47
238
131
292
286
22
184
158
66
189
303
32
151
308
235
85
206
331
343
266
86
247
293
355
268
334
15
255
6
321
152
300
320
240
371
182
147
258
390
143
341
177
77
309
175
164
421
437
188
252
434
380
394
43
360
160
435
298
347
285
389
91
429
433
209
12
216
344
283
110
201
92
220
205
112
398
249
363
213
277
157
198
103
288
436
192
153
207
423
163
35
13
357
418
420
306
365
228
219
427
386
281
330
150
373
116
401
297
106
102
379
125
430
260
275
149
317
114
278
7
224
124
324
121
50
61
329
312
33
251
226
346
105
87
384
225
136
282
70
56
405
253
126
388
289
51
370
404
181
98
407
4
336
161
144
183
21
338
408
353
23
200
18
411
88
208
166
342
159
190
328
65
326
345
381
167
93
296
291
8
284
358
195
72
100
327
273
223
118
19
104
412
270
173
339
236
234
76
9
119
36
74
134
313
366
113
362
203
417
109
186
239
75
256
27
221
29
431
154
316
79
382
193
396
58
340
295
319
304
231
141
107
241
59
361
180
395
82
40
138
78
130
84
170
378
67
391
129
97
111
419
294
37
172
248
415
267
335
244
57
11
99
46
352
257
230
63
26
310
14
162
179
392
178
146
73
120
425
115
101
402
168
48
137
399
127
16
287
372
69
24
242
132
45
211
375
117
314
5
385
413
245
376
81
95
374
269
210
301
2
264
409
165
25
28
265
42
44
333
55
71
174
108
89
263
62
422
3
318
122
315
354
311
367
123

> <PUBCHEM_MMFF94_PARTIAL_CHARGES>
36
1 -0.56
10 0.28
11 0.28
12 0.37
13 0.3
14 0.28
15 0.28
16 0.72
17 0.69
18 0.3
19 0.31
2 -0.56
20 0.16
21 -0.15
24 0.08
25 -0.15
26 -0.15
27 -0.15
28 -0.15
29 0.28
3 -0.57
38 0.4
39 0.37
4 -0.36
40 0.37
43 0.15
44 0.15
48 0.15
49 0.15
5 -0.87
50 0.15
51 0.15
6 -0.73
7 -0.73
8 -0.62
9 -0.62

> <PUBCHEM_EFFECTIVE_ROTOR_COUNT>
9.2

> <PUBCHEM_PHARMACOPHORE_FEATURES>
13
1 1 acceptor
1 2 acceptor
1 3 acceptor
1 4 acceptor
1 5 donor
1 6 donor
1 7 donor
1 8 acceptor
4 5 8 9 16 cation
5 1 10 11 12 14 rings
5 2 10 11 13 15 rings
6 22 24 25 26 27 28 rings
6 8 9 16 19 20 21 rings

> <PUBCHEM_HEAVY_ATOM_COUNT>
29

> <PUBCHEM_ATOM_DEF_STEREO_COUNT>
4

> <PUBCHEM_ATOM_UDEF_STEREO_COUNT>
0

> <PUBCHEM_BOND_DEF_STEREO_COUNT>
0

> <PUBCHEM_BOND_UDEF_STEREO_COUNT>
0

> <PUBCHEM_ISOTOPIC_ATOM_COUNT>
0

> <PUBCHEM_COMPONENT_COUNT>
1

> <PUBCHEM_CACTVS_TAUTO_COUNT>
9

> <PUBCHEM_CONFORMER_ID>
00B6371E00000001

> <PUBCHEM_MMFF94_ENERGY>
98.4441

> <PUBCHEM_FEATURE_SELFOVERLAP>
66.73

> <PUBCHEM_SHAPE_FINGERPRINT>
10165383 225 17530973492752678742
10483366 6 18128836157402785862
10674148 151 18272379663967509564
11828532 37 15625928873006335953
1200032 147 18337124409988896958
12363563 72 13181916890450276118
12633257 1 18265311980688869655
12788726 201 18131354063861576457
13583140 156 17098313338886798679
13782708 43 15358813393083432498
13828863 39 18260837024609664237
14114211 80 18116161132959039942
14251764 75 18337114561049268393
14765038 42 18188497998645562804
14790565 3 18341617001341378693
14840074 17 18260835899307653949
14950920 106 17386559146945299633
15001296 14 18271800267904200473
151778 21 18040701568298313102
15183329 4 14692575381920972975
15188451 53 9150901533678460204
15238133 3 18130214982831282522
15297060 5 17917711288325960858
19319366 153 18113614586703907730
20465049 17 18336838502663932982
21120745 212 17977663435858532679
21458453 9 16517113897626175561
21585480 29 17096104587915223531
249057 25 18267561599107879599
312425 83 16485833899806493776
3178227 256 17531241709276363882
38570 142 18261122880605900382
392239 28 17458616800996920027
437795 70 14836135308019018105
469060 322 16589139609900273983
5223283 242 14620800383962291035
5252454 2 18187632657092128556
57527295 17 18265054829283126630
613672 6 12607415416153817132
6523845 18 16877953720111664678

> <PUBCHEM_SHAPE_MULTIPOLES>
548.42
14.89
3.54
2.27
15.58
0
-0.43
13.73
-2.59
-0.28
-0.55
-0.31
-0.79
-4.4

> <PUBCHEM_SHAPE_SELFOVERLAP>
1180.547

> <PUBCHEM_SHAPE_VOLUME>
300.8

> <PUBCHEM_COORDINATE_TYPE>
2
5
10

$$$$
