26744182
  -OEChem-12032416193D

 44 47  0     1  0  0  0  0  0999 V2000
   -5.0679   -1.8338   -2.1036 O   0  0  0  0  0  0  0  0  0  0  0  0
   -0.7763   -1.9240    1.6465 O   0  0  0  0  0  0  0  0  0  0  0  0
    6.1059    0.4892   -0.6567 O   0  0  0  0  0  0  0  0  0  0  0  0
   -3.0559    0.3545   -0.1201 N   0  0  1  0  0  0  0  0  0  0  0  0
   -0.1911   -0.4718    0.0449 N   0  0  0  0  0  0  0  0  0  0  0  0
    0.6229   -1.8644    1.6672 N   0  0  0  0  0  0  0  0  0  0  0  0
   -3.1327    2.7485    0.3292 C   0  0  0  0  0  0  0  0  0  0  0  0
   -1.7650    3.3160    0.0864 C   0  0  0  0  0  0  0  0  0  0  0  0
   -2.6151    3.8570    1.1983 C   0  0  0  0  0  0  0  0  0  0  0  0
   -3.2627    1.3738    0.9003 C   0  0  0  0  0  0  0  0  0  0  0  0
   -2.6672   -0.9569    0.4372 C   0  0  1  0  0  0  0  0  0  0  0  0
   -4.2577    0.1248   -0.9197 C   0  0  0  0  0  0  0  0  0  0  0  0
   -3.1999   -1.9884   -0.5747 C   0  0  0  0  0  0  0  0  0  0  0  0
   -3.9114   -1.1642   -1.6405 C   0  0  1  0  0  0  0  0  0  0  0  0
   -1.1746   -1.0751    0.6632 C   0  0  0  0  0  0  0  0  0  0  0  0
    0.8919   -0.9877    0.6952 C   0  0  0  0  0  0  0  0  0  0  0  0
    2.2307   -0.6072    0.3482 C   0  0  0  0  0  0  0  0  0  0  0  0
    2.4515    0.3123   -0.6773 C   0  0  0  0  0  0  0  0  0  0  0  0
    3.3121   -1.1578    1.0359 C   0  0  0  0  0  0  0  0  0  0  0  0
    3.7535    0.6807   -1.0153 C   0  0  0  0  0  0  0  0  0  0  0  0
    4.6143   -0.7895    0.6979 C   0  0  0  0  0  0  0  0  0  0  0  0
    4.8350    0.1298   -0.3277 C   0  0  0  0  0  0  0  0  0  0  0  0
    6.2598    1.4342   -1.7147 C   0  0  0  0  0  0  0  0  0  0  0  0
   -3.9223    2.9985   -0.3690 H   0  0  0  0  0  0  0  0  0  0  0  0
   -1.6261    3.9364   -0.7906 H   0  0  0  0  0  0  0  0  0  0  0  0
   -0.8983    2.7255    0.3573 H   0  0  0  0  0  0  0  0  0  0  0  0
   -2.3188    3.6306    2.2151 H   0  0  0  0  0  0  0  0  0  0  0  0
   -3.0463    4.8423    1.0687 H   0  0  0  0  0  0  0  0  0  0  0  0
   -4.2354    1.2643    1.3968 H   0  0  0  0  0  0  0  0  0  0  0  0
   -2.5102    1.2565    1.6919 H   0  0  0  0  0  0  0  0  0  0  0  0
   -3.1807   -1.1305    1.3937 H   0  0  0  0  0  0  0  0  0  0  0  0
   -4.4491    0.9330   -1.6332 H   0  0  0  0  0  0  0  0  0  0  0  0
   -5.1596   -0.0064   -0.3072 H   0  0  0  0  0  0  0  0  0  0  0  0
   -2.4106   -2.5974   -1.0302 H   0  0  0  0  0  0  0  0  0  0  0  0
   -3.8976   -2.6773   -0.0824 H   0  0  0  0  0  0  0  0  0  0  0  0
   -3.2446   -0.9686   -2.4893 H   0  0  0  0  0  0  0  0  0  0  0  0
   -4.7817   -2.6817   -2.4842 H   0  0  0  0  0  0  0  0  0  0  0  0
    1.6289    0.7586   -1.2308 H   0  0  0  0  0  0  0  0  0  0  0  0
    3.1793   -1.8769    1.8403 H   0  0  0  0  0  0  0  0  0  0  0  0
    3.8536    1.3995   -1.8214 H   0  0  0  0  0  0  0  0  0  0  0  0
    5.4530   -1.2217    1.2369 H   0  0  0  0  0  0  0  0  0  0  0  0
    7.3339    1.6046   -1.8421 H   0  0  0  0  0  0  0  0  0  0  0  0
    5.8109    2.4002   -1.4598 H   0  0  0  0  0  0  0  0  0  0  0  0
    5.8838    1.0394   -2.6647 H   0  0  0  0  0  0  0  0  0  0  0  0
  1 14  1  0  0  0  0
  1 37  1  0  0  0  0
  2  6  1  0  0  0  0
  2 15  1  0  0  0  0
  3 22  1  0  0  0  0
  3 23  1  0  0  0  0
  4 10  1  0  0  0  0
  4 11  1  0  0  0  0
  4 12  1  0  0  0  0
  5 15  2  0  0  0  0
  5 16  1  0  0  0  0
  6 16  2  0  0  0  0
  7  8  1  0  0  0  0
  7  9  1  0  0  0  0
  7 10  1  0  0  0  0
  7 24  1  0  0  0  0
  8  9  1  0  0  0  0
  8 25  1  0  0  0  0
  8 26  1  0  0  0  0
  9 27  1  0  0  0  0
  9 28  1  0  0  0  0
 10 29  1  0  0  0  0
 10 30  1  0  0  0  0
 11 13  1  0  0  0  0
 11 15  1  0  0  0  0
 11 31  1  0  0  0  0
 12 14  1  0  0  0  0
 12 32  1  0  0  0  0
 12 33  1  0  0  0  0
 13 14  1  0  0  0  0
 13 34  1  0  0  0  0
 13 35  1  0  0  0  0
 14 36  1  0  0  0  0
 16 17  1  0  0  0  0
 17 18  2  0  0  0  0
 17 19  1  0  0  0  0
 18 20  1  0  0  0  0
 18 38  1  0  0  0  0
 19 21  2  0  0  0  0
 19 39  1  0  0  0  0
 20 22  2  0  0  0  0
 20 40  1  0  0  0  0
 21 22  1  0  0  0  0
 21 41  1  0  0  0  0
 23 42  1  0  0  0  0
 23 43  1  0  0  0  0
 23 44  1  0  0  0  0
M  END
> <PUBCHEM_COMPOUND_CID>
26744182

> <PUBCHEM_CONFORMER_RMSD>
0.8

> <PUBCHEM_CONFORMER_DIVERSEORDER>
1
6
27
26
2
20
13
35
8
21
17
25
24
19
3
23
16
5
9
34
30
28
15
12
33
11
32
14
4
18
22
7
10
36
31
29

> <PUBCHEM_MMFF94_PARTIAL_CHARGES>
32
1 -0.68
10 0.37
11 0.45
12 0.27
14 0.28
15 0.3
16 0.46
17 0.05
18 -0.15
19 -0.15
2 -0.02
20 -0.15
21 -0.15
22 0.08
23 0.28
24 0.1
25 0.1
26 0.1
27 0.1
28 0.1
3 -0.36
37 0.4
38 0.15
39 0.15
4 -0.81
40 0.15
41 0.15
5 -0.57
6 -0.41
7 -0.19
8 -0.2
9 -0.2

> <PUBCHEM_EFFECTIVE_ROTOR_COUNT>
6.6

> <PUBCHEM_PHARMACOPHORE_FEATURES>
8
1 1 acceptor
1 1 donor
1 3 acceptor
1 4 cation
3 5 6 16 cation
5 2 5 6 15 16 rings
5 4 11 12 13 14 rings
6 17 18 19 20 21 22 rings

> <PUBCHEM_HEAVY_ATOM_COUNT>
23

> <PUBCHEM_ATOM_DEF_STEREO_COUNT>
2

> <PUBCHEM_ATOM_UDEF_STEREO_COUNT>
0

> <PUBCHEM_BOND_DEF_STEREO_COUNT>
0

> <PUBCHEM_BOND_UDEF_STEREO_COUNT>
0

> <PUBCHEM_ISOTOPIC_ATOM_COUNT>
0

> <PUBCHEM_COMPONENT_COUNT>
1

> <PUBCHEM_CACTVS_TAUTO_COUNT>
1

> <PUBCHEM_CONFORMER_ID>
0198157600000001

> <PUBCHEM_MMFF94_ENERGY>
58.9686

> <PUBCHEM_FEATURE_SELFOVERLAP>
40.596

> <PUBCHEM_SHAPE_FINGERPRINT>
10087517 78 18410012144017744516
10291535 26 18334870453795797712
10670039 82 18409171000431648564
10871710 139 18336828589879985373
10937287 8 17623854518176412081
11049842 53 17697585611545009347
11089746 13 18409448124928046748
11370993 144 12252174169654079328
11477941 20 18059848510834522308
12107183 9 17760644768329934138
12166972 35 17749670808923664285
12596602 18 17240490203715837808
12788726 201 18269540673283151579
13583140 156 14562532890107785144
14187579 7 18342744052436873232
14294032 229 18129949958408068753
14556957 393 18410571816689444085
14739800 52 18337377349672911784
14910302 57 17560804294816695327
15064981 113 18128808660599956110
15183329 4 17968097491818459134
15348495 7 11891335387563130260
15420108 30 16466430389289297512
15961568 22 18055613252348003536
16994733 274 15864893354674966933
17818456 19 17838605661661438738
1813 80 12823020884084048962
20300324 65 18413666915998250223
20642791 239 18189317079490320437
20775438 99 16757438741382746599
21033648 29 14996281401155155190
21033650 10 18198928949593778644
21304303 64 17458339703214532445
21315763 76 17531242907292554020
21421566 26 17845638348849750341
21864079 5 18188779314190959745
235170 7 17418094317097921300
23557571 272 17775003466411854457
255183 451 17626084702015614335
312425 54 10809335681509495164
312425 83 18128831750280841926
3268164 11 18060412504453641117
3610482 184 18266479662364758652
46194498 28 17274532248127986880
474 4 17895194346513731763
5104073 3 17313387872678274104
531348 171 18129953265036839110
5364581 5 12108656085338703286
633830 44 18115596924337997610
6608658 132 18409730677250816700
7808743 9 18269558234576919249

> <PUBCHEM_SHAPE_MULTIPOLES>
440.78
12.55
3.24
1.58
15.07
3.61
-0.32
2.03
-6.43
-4.73
0.79
-0.32
-0.5
-3.27

> <PUBCHEM_SHAPE_SELFOVERLAP>
944.082

> <PUBCHEM_SHAPE_VOLUME>
248

> <PUBCHEM_COORDINATE_TYPE>
2
5
10

$$$$
