11943011
  -OEChem-12032416153D

 55 58  0     1  0  0  0  0  0999 V2000
   -2.1401    2.9860    0.6530 O   0  0  0  0  0  0  0  0  0  0  0  0
   -0.7586    0.6414    2.1797 O   0  0  0  0  0  0  0  0  0  0  0  0
   -5.5599    0.3263    0.3058 O   0  0  0  0  0  0  0  0  0  0  0  0
    2.1705   -1.9395    0.3842 O   0  0  0  0  0  0  0  0  0  0  0  0
    0.5195    2.3366   -0.7904 N   0  0  0  0  0  0  0  0  0  0  0  0
   -3.5107   -0.3695    1.1477 N   0  0  0  0  0  0  0  0  0  0  0  0
   -4.9595   -1.9143    0.2484 N   0  0  0  0  0  0  0  0  0  0  0  0
    2.3020    0.8845   -0.4641 N   0  0  0  0  0  0  0  0  0  0  0  0
    1.8503    1.8433   -2.6283 N   0  0  0  0  0  0  0  0  0  0  0  0
   -0.7728    1.0442    0.7998 C   0  0  1  0  0  0  0  0  0  0  0  0
   -2.1666    1.5576    0.4954 C   0  0  1  0  0  0  0  0  0  0  0  0
    0.1170    2.2476    0.5962 C   0  0  2  0  0  0  0  0  0  0  0  0
   -3.0322    0.9271    1.5623 C   0  0  2  0  0  0  0  0  0  0  0  0
   -0.7999    3.4035    0.9519 C   0  0  0  0  0  0  0  0  0  0  0  0
   -2.0721    0.8110    2.7329 C   0  0  0  0  0  0  0  0  0  0  0  0
    1.6044    1.6585   -1.3172 C   0  0  0  0  0  0  0  0  0  0  0  0
   -4.7515   -0.5697    0.5455 C   0  0  0  0  0  0  0  0  0  0  0  0
    3.3527    0.2384   -1.0110 C   0  0  0  0  0  0  0  0  0  0  0  0
   -6.1655   -2.3992   -0.3803 C   0  0  0  0  0  0  0  0  0  0  0  0
    2.9149    1.1677   -3.1087 C   0  0  0  0  0  0  0  0  0  0  0  0
    3.7099    0.3429   -2.3398 C   0  0  0  0  0  0  0  0  0  0  0  0
    4.1023   -0.5931   -0.1001 C   0  0  0  0  0  0  0  0  0  0  0  0
   -5.9875   -2.3733   -1.8619 C   0  0  0  0  0  0  0  0  0  0  0  0
    3.4913   -1.6541    0.5684 C   0  0  0  0  0  0  0  0  0  0  0  0
    5.4553   -0.3245    0.1077 C   0  0  0  0  0  0  0  0  0  0  0  0
    4.2334   -2.4464    1.4444 C   0  0  0  0  0  0  0  0  0  0  0  0
    6.1972   -1.1170    0.9838 C   0  0  0  0  0  0  0  0  0  0  0  0
   -6.7761   -1.6859   -2.6958 C   0  0  0  0  0  0  0  0  0  0  0  0
    5.5863   -2.1777    1.6521 C   0  0  0  0  0  0  0  0  0  0  0  0
    1.8459   -2.8523   -0.6615 C   0  0  0  0  0  0  0  0  0  0  0  0
   -0.5050    0.1660    0.2035 H   0  0  0  0  0  0  0  0  0  0  0  0
   -2.4865    1.3465   -0.5301 H   0  0  0  0  0  0  0  0  0  0  0  0
    0.9909    2.2679    1.2574 H   0  0  0  0  0  0  0  0  0  0  0  0
   -3.8931    1.5485    1.8312 H   0  0  0  0  0  0  0  0  0  0  0  0
   -0.7602    3.6172    2.0258 H   0  0  0  0  0  0  0  0  0  0  0  0
   -0.5799    4.3290    0.4107 H   0  0  0  0  0  0  0  0  0  0  0  0
   -2.0593    1.7347    3.3219 H   0  0  0  0  0  0  0  0  0  0  0  0
   -2.2932   -0.0233    3.4055 H   0  0  0  0  0  0  0  0  0  0  0  0
   -0.0407    2.8793   -1.4380 H   0  0  0  0  0  0  0  0  0  0  0  0
   -2.8888   -1.1672    1.2405 H   0  0  0  0  0  0  0  0  0  0  0  0
   -4.2256   -2.5815    0.4662 H   0  0  0  0  0  0  0  0  0  0  0  0
   -7.0165   -1.7912   -0.0551 H   0  0  0  0  0  0  0  0  0  0  0  0
   -6.3250   -3.4275   -0.0417 H   0  0  0  0  0  0  0  0  0  0  0  0
    3.1168    1.3115   -4.1648 H   0  0  0  0  0  0  0  0  0  0  0  0
    4.5518   -0.1841   -2.7715 H   0  0  0  0  0  0  0  0  0  0  0  0
   -5.1762   -2.9622   -2.2829 H   0  0  0  0  0  0  0  0  0  0  0  0
    5.9512    0.5010   -0.3977 H   0  0  0  0  0  0  0  0  0  0  0  0
    3.7644   -3.2742    1.9695 H   0  0  0  0  0  0  0  0  0  0  0  0
    7.2502   -0.9070    1.1468 H   0  0  0  0  0  0  0  0  0  0  0  0
   -6.6000   -1.7128   -3.7656 H   0  0  0  0  0  0  0  0  0  0  0  0
   -7.6037   -1.0880   -2.3304 H   0  0  0  0  0  0  0  0  0  0  0  0
    6.1638   -2.7942    2.3346 H   0  0  0  0  0  0  0  0  0  0  0  0
    2.2115   -2.4906   -1.6273 H   0  0  0  0  0  0  0  0  0  0  0  0
    2.2659   -3.8404   -0.4487 H   0  0  0  0  0  0  0  0  0  0  0  0
    0.7571   -2.9397   -0.7124 H   0  0  0  0  0  0  0  0  0  0  0  0
  1 11  1  0  0  0  0
  1 14  1  0  0  0  0
  2 10  1  0  0  0  0
  2 15  1  0  0  0  0
  3 17  2  0  0  0  0
  4 24  1  0  0  0  0
  4 30  1  0  0  0  0
  5 12  1  0  0  0  0
  5 16  1  0  0  0  0
  5 39  1  0  0  0  0
  6 13  1  0  0  0  0
  6 17  1  0  0  0  0
  6 40  1  0  0  0  0
  7 17  1  0  0  0  0
  7 19  1  0  0  0  0
  7 41  1  0  0  0  0
  8 16  1  0  0  0  0
  8 18  2  0  0  0  0
  9 16  2  0  0  0  0
  9 20  1  0  0  0  0
 10 11  1  0  0  0  0
 10 12  1  0  0  0  0
 10 31  1  0  0  0  0
 11 13  1  0  0  0  0
 11 32  1  0  0  0  0
 12 14  1  0  0  0  0
 12 33  1  0  0  0  0
 13 15  1  0  0  0  0
 13 34  1  0  0  0  0
 14 35  1  0  0  0  0
 14 36  1  0  0  0  0
 15 37  1  0  0  0  0
 15 38  1  0  0  0  0
 18 21  1  0  0  0  0
 18 22  1  0  0  0  0
 19 23  1  0  0  0  0
 19 42  1  0  0  0  0
 19 43  1  0  0  0  0
 20 21  2  0  0  0  0
 20 44  1  0  0  0  0
 21 45  1  0  0  0  0
 22 24  1  0  0  0  0
 22 25  2  0  0  0  0
 23 28  2  0  0  0  0
 23 46  1  0  0  0  0
 24 26  2  0  0  0  0
 25 27  1  0  0  0  0
 25 47  1  0  0  0  0
 26 29  1  0  0  0  0
 26 48  1  0  0  0  0
 27 29  2  0  0  0  0
 27 49  1  0  0  0  0
 28 50  1  0  0  0  0
 28 51  1  0  0  0  0
 29 52  1  0  0  0  0
 30 53  1  0  0  0  0
 30 54  1  0  0  0  0
 30 55  1  0  0  0  0
M  END
> <PUBCHEM_COMPOUND_CID>
11943011

> <PUBCHEM_CONFORMER_RMSD>
1

> <PUBCHEM_CONFORMER_DIVERSEORDER>
1
26
38
88
47
32
92
27
49
52
99
72
65
56
22
39
50
43
24
64
30
93
60
84
29
16
59
28
40
48
108
57
101
37
91
14
10
71
68
98
89
15
34
103
41
96
78
36
46
45
63
33
31
105
97
18
69
25
107
77
20
21
85
86
54
83
106
67
11
100
79
4
8
13
109
19
75
61
12
2
51
95
104
17
62
55
87
73
76
66
44
23
9
42
82
53
7
80
35
58
70
5
74
90
102
6
81
94
3

> <PUBCHEM_MMFF94_PARTIAL_CHARGES>
41
1 -0.56
10 0.28
11 0.28
12 0.37
13 0.3
14 0.28
15 0.28
16 0.72
17 0.69
18 0.31
19 0.44
2 -0.56
20 0.16
21 -0.15
23 -0.29
24 0.08
25 -0.15
26 -0.15
27 -0.15
28 -0.3
29 -0.15
3 -0.57
30 0.28
39 0.4
4 -0.36
40 0.37
41 0.37
44 0.15
45 0.15
46 0.15
47 0.15
48 0.15
49 0.15
5 -0.87
50 0.15
51 0.15
52 0.15
6 -0.73
7 -0.73
8 -0.62
9 -0.62

> <PUBCHEM_EFFECTIVE_ROTOR_COUNT>
10.2

> <PUBCHEM_PHARMACOPHORE_FEATURES>
14
1 1 acceptor
1 2 acceptor
1 28 hydrophobe
1 3 acceptor
1 4 acceptor
1 5 donor
1 6 donor
1 7 donor
1 8 acceptor
4 5 8 9 16 cation
5 1 10 11 12 14 rings
5 2 10 11 13 15 rings
6 22 24 25 26 27 29 rings
6 8 9 16 18 20 21 rings

> <PUBCHEM_HEAVY_ATOM_COUNT>
30

> <PUBCHEM_ATOM_DEF_STEREO_COUNT>
4

> <PUBCHEM_ATOM_UDEF_STEREO_COUNT>
0

> <PUBCHEM_BOND_DEF_STEREO_COUNT>
0

> <PUBCHEM_BOND_UDEF_STEREO_COUNT>
0

> <PUBCHEM_ISOTOPIC_ATOM_COUNT>
0

> <PUBCHEM_COMPONENT_COUNT>
1

> <PUBCHEM_CACTVS_TAUTO_COUNT>
9

> <PUBCHEM_CONFORMER_ID>
00B63C6300000001

> <PUBCHEM_MMFF94_ENERGY>
89.7589

> <PUBCHEM_FEATURE_SELFOVERLAP>
71.805

> <PUBCHEM_SHAPE_FINGERPRINT>
10622 236 18115302272174821666
11069576 57 18260277343100345710
11135926 11 17097527355951177932
11443803 9 17558555962044762436
11796584 16 17775013379871678393
12166972 35 18186798093227774302
12758862 65 17130986636612946035
13782708 43 16414656864437745870
13828863 39 11671775001038543147
14508693 111 17987804149569480975
1454969 45 17822305570142830374
15119646 104 18334300868307691035
15183329 4 16081082663068868497
15419009 47 17824526488556725773
17349148 13 18042421165871647472
17852330 134 16877665647394956790
17857418 61 18408327665821660961
19315092 285 18343581858769271832
20028762 73 18411983521137764770
21223535 225 16588574302489348773
21315764 371 17917723370111350842
21458453 9 15697137707722419363
25222932 49 17917986187908285386
312425 83 14997429398520938823
4015057 19 17530976807977158697
437795 139 18270952540560201799
437795 70 15936679390067006423
4394409 98 18201143409384423287
439807 62 18188495795849630979
444735 79 15626215866488456311
46194498 28 15142682576857784941
463206 1 18337120058981544939
57035037 87 12468647158115310894
57527293 21 17535471414728826114
59025328 239 17603588517257781772
59682541 52 17822006562550675743

> <PUBCHEM_SHAPE_MULTIPOLES>
569
15.47
3.61
2.7
13.85
0.38
1.53
-15.76
2.46
1.78
-0.11
-0.1
0.41
-5.01

> <PUBCHEM_SHAPE_SELFOVERLAP>
1222.05

> <PUBCHEM_SHAPE_VOLUME>
312.1

> <PUBCHEM_COORDINATE_TYPE>
2
5
10

$$$$
