75536854
  -OEChem-12032416303D

 46 48  0     1  0  0  0  0  0999 V2000
   -1.1538   -2.7542   -0.5736 O   0  0  0  0  0  0  0  0  0  0  0  0
   -1.6112    0.8384   -0.4349 O   0  0  0  0  0  0  0  0  0  0  0  0
    3.4093   -2.1438    0.8796 O   0  0  0  0  0  0  0  0  0  0  0  0
    1.2523   -1.2375    0.7429 N   0  0  0  0  0  0  0  0  0  0  0  0
    4.0980    0.2819   -0.7772 N   0  0  0  0  0  0  0  0  0  0  0  0
    4.5607    1.5393   -0.8823 N   0  0  0  0  0  0  0  0  0  0  0  0
   -3.7180   -0.1006   -0.2042 N   0  0  0  0  0  0  0  0  0  0  0  0
   -1.0460   -0.3908    0.0233 C   0  0  2  0  0  0  0  0  0  0  0  0
    0.3946   -0.0849    0.4426 C   0  0  0  0  0  0  0  0  0  0  0  0
    0.6134   -2.5046    1.1021 C   0  0  0  0  0  0  0  0  0  0  0  0
   -1.1397   -1.4283   -1.0936 C   0  0  0  0  0  0  0  0  0  0  0  0
    0.1126   -3.2360   -0.1367 C   0  0  0  0  0  0  0  0  0  0  0  0
    2.6543   -1.1954    0.6676 C   0  0  0  0  0  0  0  0  0  0  0  0
    3.2962    0.0787    0.3075 C   0  0  0  0  0  0  0  0  0  0  0  0
    3.2302    1.2870    0.9572 C   0  0  0  0  0  0  0  0  0  0  0  0
   -2.9507    1.0122   -0.2208 C   0  0  0  0  0  0  0  0  0  0  0  0
    4.0272    2.1485    0.1799 C   0  0  0  0  0  0  0  0  0  0  0  0
    4.4728   -0.6941   -1.7738 C   0  0  0  0  0  0  0  0  0  0  0  0
   -3.4407    2.2952   -0.0372 C   0  0  0  0  0  0  0  0  0  0  0  0
    4.3060    3.5741    0.4218 C   0  0  0  0  0  0  0  0  0  0  0  0
   -5.0404    0.0848    0.0071 C   0  0  0  0  0  0  0  0  0  0  0  0
   -4.8062    2.4456    0.1775 C   0  0  0  0  0  0  0  0  0  0  0  0
   -5.6282    1.3244    0.2016 C   0  0  0  0  0  0  0  0  0  0  0  0
   -5.8927   -1.1399    0.0236 C   0  0  0  0  0  0  0  0  0  0  0  0
   -1.5795   -0.7458    0.9162 H   0  0  0  0  0  0  0  0  0  0  0  0
    0.8649    0.5169   -0.3437 H   0  0  0  0  0  0  0  0  0  0  0  0
    0.3778    0.5476    1.3390 H   0  0  0  0  0  0  0  0  0  0  0  0
   -0.1887   -2.3052    1.8203 H   0  0  0  0  0  0  0  0  0  0  0  0
    1.3503   -3.1394    1.6063 H   0  0  0  0  0  0  0  0  0  0  0  0
   -0.3278   -1.3123   -1.8230 H   0  0  0  0  0  0  0  0  0  0  0  0
   -2.0627   -1.3128   -1.6697 H   0  0  0  0  0  0  0  0  0  0  0  0
    0.8329   -3.1997   -0.9625 H   0  0  0  0  0  0  0  0  0  0  0  0
   -0.0379   -4.2906    0.1176 H   0  0  0  0  0  0  0  0  0  0  0  0
    2.6895    1.5128    1.8652 H   0  0  0  0  0  0  0  0  0  0  0  0
    4.8047   -0.1778   -2.6786 H   0  0  0  0  0  0  0  0  0  0  0  0
    5.2845   -1.3013   -1.3661 H   0  0  0  0  0  0  0  0  0  0  0  0
    3.6051   -1.3154   -2.0088 H   0  0  0  0  0  0  0  0  0  0  0  0
   -2.7860    3.1595   -0.0589 H   0  0  0  0  0  0  0  0  0  0  0  0
    5.3811    3.7436    0.5411 H   0  0  0  0  0  0  0  0  0  0  0  0
    3.9519    4.1849   -0.4151 H   0  0  0  0  0  0  0  0  0  0  0  0
    3.8081    3.9291    1.3299 H   0  0  0  0  0  0  0  0  0  0  0  0
   -5.2289    3.4347    0.3256 H   0  0  0  0  0  0  0  0  0  0  0  0
   -6.6950    1.4292    0.3678 H   0  0  0  0  0  0  0  0  0  0  0  0
   -6.6471   -1.0896   -0.7679 H   0  0  0  0  0  0  0  0  0  0  0  0
   -5.2906   -2.0398   -0.1405 H   0  0  0  0  0  0  0  0  0  0  0  0
   -6.3945   -1.2416    0.9911 H   0  0  0  0  0  0  0  0  0  0  0  0
  1 11  1  0  0  0  0
  1 12  1  0  0  0  0
  2  8  1  0  0  0  0
  2 16  1  0  0  0  0
  3 13  2  0  0  0  0
  4  9  1  0  0  0  0
  4 10  1  0  0  0  0
  4 13  1  0  0  0  0
  5  6  1  0  0  0  0
  5 14  1  0  0  0  0
  5 18  1  0  0  0  0
  6 17  2  0  0  0  0
  7 16  1  0  0  0  0
  7 21  2  0  0  0  0
  8  9  1  0  0  0  0
  8 11  1  0  0  0  0
  8 25  1  0  0  0  0
  9 26  1  0  0  0  0
  9 27  1  0  0  0  0
 10 12  1  0  0  0  0
 10 28  1  0  0  0  0
 10 29  1  0  0  0  0
 11 30  1  0  0  0  0
 11 31  1  0  0  0  0
 12 32  1  0  0  0  0
 12 33  1  0  0  0  0
 13 14  1  0  0  0  0
 14 15  2  0  0  0  0
 15 17  1  0  0  0  0
 15 34  1  0  0  0  0
 16 19  2  0  0  0  0
 17 20  1  0  0  0  0
 18 35  1  0  0  0  0
 18 36  1  0  0  0  0
 18 37  1  0  0  0  0
 19 22  1  0  0  0  0
 19 38  1  0  0  0  0
 20 39  1  0  0  0  0
 20 40  1  0  0  0  0
 20 41  1  0  0  0  0
 21 23  1  0  0  0  0
 21 24  1  0  0  0  0
 22 23  2  0  0  0  0
 22 42  1  0  0  0  0
 23 43  1  0  0  0  0
 24 44  1  0  0  0  0
 24 45  1  0  0  0  0
 24 46  1  0  0  0  0
M  END
> <PUBCHEM_COMPOUND_CID>
75536854

> <PUBCHEM_CONFORMER_RMSD>
1

> <PUBCHEM_CONFORMER_DIVERSEORDER>
1
143
40
101
195
47
161
153
135
155
51
41
164
125
85
130
80
186
156
25
181
146
171
10
89
177
166
106
188
66
54
49
24
115
23
163
87
96
29
120
193
72
127
109
185
139
116
3
194
191
69
162
86
159
27
150
108
91
167
190
121
128
59
119
114
13
32
8
154
75
172
90
74
187
112
5
53
182
176
189
144
184
20
103
169
7
35
192
178
110
102
68
118
26
138
97
94
55
4
67
100
58
70
136
145
81
168
12
36
129
79
17
148
31
158
157
84
113
131
173
137
126
2
50
43
104
179
174
147
123
124
45
39
15
105
151
21
99
18
78
88
132
42
77
9
117
93
52
165
56
142
38
61
76
44
34
6
63
37
57
175
19
83
183
149
28
33
160
62
16
152
134
11
122
133
30
170
107
98
22
95
60
64
140
46
180
141
73
92
71
65
14
111
48
82

> <PUBCHEM_MMFF94_PARTIAL_CHARGES>
28
1 -0.56
10 0.3
11 0.28
12 0.28
13 0.71
14 -0.24
15 -0.15
16 0.39
17 0.11
18 0.26
19 -0.15
2 -0.36
20 0.18
21 0.17
22 -0.15
23 -0.15
24 0.14
3 -0.57
34 0.15
38 0.15
4 -0.66
42 0.15
43 0.15
5 0.31
6 -0.71
7 -0.62
8 0.28
9 0.3

> <PUBCHEM_EFFECTIVE_ROTOR_COUNT>
5.4

> <PUBCHEM_PHARMACOPHORE_FEATURES>
8
1 1 acceptor
1 2 acceptor
1 3 acceptor
1 6 acceptor
1 7 acceptor
5 5 6 14 15 17 rings
6 7 16 19 21 22 23 rings
7 1 4 8 9 10 11 12 rings

> <PUBCHEM_HEAVY_ATOM_COUNT>
24

> <PUBCHEM_ATOM_DEF_STEREO_COUNT>
1

> <PUBCHEM_ATOM_UDEF_STEREO_COUNT>
0

> <PUBCHEM_BOND_DEF_STEREO_COUNT>
0

> <PUBCHEM_BOND_UDEF_STEREO_COUNT>
0

> <PUBCHEM_ISOTOPIC_ATOM_COUNT>
0

> <PUBCHEM_COMPONENT_COUNT>
1

> <PUBCHEM_CACTVS_TAUTO_COUNT>
1

> <PUBCHEM_CONFORMER_ID>
048099D600000001

> <PUBCHEM_MMFF94_ENERGY>
66.9381

> <PUBCHEM_FEATURE_SELFOVERLAP>
40.647

> <PUBCHEM_SHAPE_FINGERPRINT>
10165383 225 18041007228594434292
10493431 412 18336823211952962440
10670039 82 18334582304503446612
11488393 25 17843140120613727543
11720765 8 17702670935202434932
11796584 16 12607396681237485373
12173636 292 18339353175418545062
12403259 118 18264753377595533145
12788726 201 17831573554641572130
12925494 130 18121772829981593713
13965767 371 17968640714707573408
14251764 75 18340215171002362929
14528608 73 18409729552027192469
1454969 45 18341890840683642015
146900 427 18409737227276169217
14787075 74 18271802458679684483
14790565 3 18412263943577579089
14849402 71 18260264145198497472
14955137 171 18046897187657059106
15885798 251 10303818678555884882
17349148 13 12107793960921702721
17844677 252 18412831261486691609
17980427 23 18055035919076134522
18681886 176 18268419149526666506
20465049 17 18339091384772908470
20567600 9 18197505017026100549
21709351 56 18193544584917201215
23227448 37 18268709591941039876
23558518 356 17903070372069058092
23559900 14 17979910511170801099
245318 6 17750813218369048501
2637199 183 18411704244677192878
34797466 226 18131357410220887205
350125 39 18335135337530049842
4098825 35 18202288047905835118
474 4 17894634776826192140
504579 68 18338228276866570423
5104073 3 18260266309513667209
5312544 6 18409445856299045899
53794403 172 18045791336351858860
57527585 21 17622151791276425516
633830 44 18272082773477136061
6442390 28 18335422378378623019
7288768 16 17895469362117968842
7808743 9 18266453403045551936
8988823 20 13045945741244517158
960060 61 12535342441484639024
9999458 23 18261955120434855734

> <PUBCHEM_SHAPE_MULTIPOLES>
456.38
12.88
3.63
1.04
8.88
0.16
0.19
8.14
1.06
-1.74
-0.44
-1.13
-0.32
-0.11

> <PUBCHEM_SHAPE_SELFOVERLAP>
964.623

> <PUBCHEM_SHAPE_VOLUME>
253.6

> <PUBCHEM_COORDINATE_TYPE>
2
5
10

$$$$
