56774693
  -OEChem-12032416213D

 54 56  0     1  0  0  0  0  0999 V2000
    0.2500    2.4404    1.6539 O   0  0  0  0  0  0  0  0  0  0  0  0
    0.8909    1.0959   -2.2824 O   0  0  0  0  0  0  0  0  0  0  0  0
   -2.7676    3.0518   -0.2334 O   0  0  0  0  0  0  0  0  0  0  0  0
    6.0312   -3.0856    0.0719 O   0  0  0  0  0  0  0  0  0  0  0  0
   -1.2432    1.3042   -0.4292 N   0  0  0  0  0  0  0  0  0  0  0  0
    6.2848   -0.7668    0.4147 N   0  0  0  0  0  0  0  0  0  0  0  0
    0.0661    0.7652   -0.0409 C   0  0  1  0  0  0  0  0  0  0  0  0
    1.1750    1.3615   -0.9129 C   0  0  1  0  0  0  0  0  0  0  0  0
    0.3243    1.0365    1.4364 C   0  0  0  0  0  0  0  0  0  0  0  0
   -1.9026    0.7050   -1.5817 C   0  0  0  0  0  0  0  0  0  0  0  0
   -3.3326    0.2632   -1.2771 C   0  0  0  0  0  0  0  0  0  0  0  0
   -1.7646    2.4538    0.1606 C   0  0  0  0  0  0  0  0  0  0  0  0
    2.5282    0.7980   -0.5613 C   0  0  0  0  0  0  0  0  0  0  0  0
   -1.0577    2.9180    1.4291 C   0  0  0  0  0  0  0  0  0  0  0  0
   -3.4485   -0.8013   -0.1780 C   0  0  0  0  0  0  0  0  0  0  0  0
    3.5534    1.6502   -0.1509 C   0  0  0  0  0  0  0  0  0  0  0  0
    2.7552   -0.5757   -0.6464 C   0  0  0  0  0  0  0  0  0  0  0  0
   -4.8624   -1.2540    0.0859 C   0  0  0  0  0  0  0  0  0  0  0  0
    4.8056    1.1287    0.1744 C   0  0  0  0  0  0  0  0  0  0  0  0
    4.0072   -1.0972   -0.3211 C   0  0  0  0  0  0  0  0  0  0  0  0
    5.0324   -0.2450    0.0892 C   0  0  0  0  0  0  0  0  0  0  0  0
   -5.6403   -0.5941    1.0372 C   0  0  0  0  0  0  0  0  0  0  0  0
   -5.3923   -2.3332   -0.6213 C   0  0  0  0  0  0  0  0  0  0  0  0
   -6.9482   -1.0133    1.2813 C   0  0  0  0  0  0  0  0  0  0  0  0
   -6.7000   -2.7525   -0.3774 C   0  0  0  0  0  0  0  0  0  0  0  0
   -7.4780   -2.0925    0.5741 C   0  0  0  0  0  0  0  0  0  0  0  0
    6.6971   -2.1058    0.3903 C   0  0  0  0  0  0  0  0  0  0  0  0
    8.1365   -2.2554    0.8151 C   0  0  0  0  0  0  0  0  0  0  0  0
    0.0029   -0.3220   -0.1741 H   0  0  0  0  0  0  0  0  0  0  0  0
    1.1845    2.4538   -0.8171 H   0  0  0  0  0  0  0  0  0  0  0  0
   -0.4214    0.5331    2.0657 H   0  0  0  0  0  0  0  0  0  0  0  0
    1.3039    0.6847    1.7711 H   0  0  0  0  0  0  0  0  0  0  0  0
   -1.9193    1.4540   -2.3819 H   0  0  0  0  0  0  0  0  0  0  0  0
   -1.3342   -0.1607   -1.9373 H   0  0  0  0  0  0  0  0  0  0  0  0
   -3.9647    1.1194   -1.0186 H   0  0  0  0  0  0  0  0  0  0  0  0
   -3.7612   -0.1417   -2.2038 H   0  0  0  0  0  0  0  0  0  0  0  0
   -1.0061    4.0115    1.4019 H   0  0  0  0  0  0  0  0  0  0  0  0
   -1.6874    2.6371    2.2815 H   0  0  0  0  0  0  0  0  0  0  0  0
   -2.8359   -1.6722   -0.4458 H   0  0  0  0  0  0  0  0  0  0  0  0
   -3.0205   -0.4220    0.7587 H   0  0  0  0  0  0  0  0  0  0  0  0
    0.9021    0.1348   -2.4257 H   0  0  0  0  0  0  0  0  0  0  0  0
    3.3911    2.7222   -0.0786 H   0  0  0  0  0  0  0  0  0  0  0  0
    1.9738   -1.2581   -0.9691 H   0  0  0  0  0  0  0  0  0  0  0  0
    5.5953    1.8044    0.4931 H   0  0  0  0  0  0  0  0  0  0  0  0
    4.1073   -2.1697   -0.4123 H   0  0  0  0  0  0  0  0  0  0  0  0
   -5.2391    0.2493    1.5929 H   0  0  0  0  0  0  0  0  0  0  0  0
   -4.7966   -2.8540   -1.3663 H   0  0  0  0  0  0  0  0  0  0  0  0
    6.9787   -0.0810    0.7052 H   0  0  0  0  0  0  0  0  0  0  0  0
   -7.5542   -0.4991    2.0215 H   0  0  0  0  0  0  0  0  0  0  0  0
   -7.1129   -3.5924   -0.9284 H   0  0  0  0  0  0  0  0  0  0  0  0
   -8.4964   -2.4188    0.7639 H   0  0  0  0  0  0  0  0  0  0  0  0
    8.2693   -1.8555    1.8244 H   0  0  0  0  0  0  0  0  0  0  0  0
    8.7848   -1.7153    0.1194 H   0  0  0  0  0  0  0  0  0  0  0  0
    8.4155   -3.3127    0.8137 H   0  0  0  0  0  0  0  0  0  0  0  0
  1  9  1  0  0  0  0
  1 14  1  0  0  0  0
  2  8  1  0  0  0  0
  2 41  1  0  0  0  0
  3 12  2  0  0  0  0
  4 27  2  0  0  0  0
  5  7  1  0  0  0  0
  5 10  1  0  0  0  0
  5 12  1  0  0  0  0
  6 21  1  0  0  0  0
  6 27  1  0  0  0  0
  6 48  1  0  0  0  0
  7  8  1  0  0  0  0
  7  9  1  0  0  0  0
  7 29  1  0  0  0  0
  8 13  1  0  0  0  0
  8 30  1  0  0  0  0
  9 31  1  0  0  0  0
  9 32  1  0  0  0  0
 10 11  1  0  0  0  0
 10 33  1  0  0  0  0
 10 34  1  0  0  0  0
 11 15  1  0  0  0  0
 11 35  1  0  0  0  0
 11 36  1  0  0  0  0
 12 14  1  0  0  0  0
 13 16  2  0  0  0  0
 13 17  1  0  0  0  0
 14 37  1  0  0  0  0
 14 38  1  0  0  0  0
 15 18  1  0  0  0  0
 15 39  1  0  0  0  0
 15 40  1  0  0  0  0
 16 19  1  0  0  0  0
 16 42  1  0  0  0  0
 17 20  2  0  0  0  0
 17 43  1  0  0  0  0
 18 22  2  0  0  0  0
 18 23  1  0  0  0  0
 19 21  2  0  0  0  0
 19 44  1  0  0  0  0
 20 21  1  0  0  0  0
 20 45  1  0  0  0  0
 22 24  1  0  0  0  0
 22 46  1  0  0  0  0
 23 25  2  0  0  0  0
 23 47  1  0  0  0  0
 24 26  2  0  0  0  0
 24 49  1  0  0  0  0
 25 26  1  0  0  0  0
 25 50  1  0  0  0  0
 26 51  1  0  0  0  0
 27 28  1  0  0  0  0
 28 52  1  0  0  0  0
 28 53  1  0  0  0  0
 28 54  1  0  0  0  0
M  END
> <PUBCHEM_COMPOUND_CID>
56774693

> <PUBCHEM_CONFORMER_RMSD>
1

> <PUBCHEM_CONFORMER_DIVERSEORDER>
1
50
21
57
23
69
60
77
62
41
44
51
30
14
36
76
73
42
25
6
81
34
2
88
75
86
78
28
15
35
45
18
63
40
87
12
64
11
37
27
32
83
17
79
13
56
31
20
49
84
71
65
29
16
39
72
55
22
9
58
4
19
74
48
52
7
68
80
24
53
43
47
38
59
82
33
3
26
85
67
8
46
61
5
54
66
70
10

> <PUBCHEM_MMFF94_PARTIAL_CHARGES>
38
1 -0.56
10 0.3
12 0.57
13 -0.14
14 0.34
15 0.14
16 -0.15
17 -0.15
18 -0.14
19 -0.15
2 -0.68
20 -0.15
21 0.12
22 -0.15
23 -0.15
24 -0.15
25 -0.15
26 -0.15
27 0.57
28 0.06
3 -0.57
4 -0.57
41 0.4
42 0.15
43 0.15
44 0.15
45 0.15
46 0.15
47 0.15
48 0.37
49 0.15
5 -0.66
50 0.15
51 0.15
6 -0.55
7 0.3
8 0.42
9 0.28

> <PUBCHEM_EFFECTIVE_ROTOR_COUNT>
9

> <PUBCHEM_PHARMACOPHORE_FEATURES>
9
1 1 acceptor
1 2 acceptor
1 2 donor
1 3 acceptor
1 4 acceptor
1 6 donor
6 1 5 7 9 12 14 rings
6 13 16 17 19 20 21 rings
6 18 22 23 24 25 26 rings

> <PUBCHEM_HEAVY_ATOM_COUNT>
28

> <PUBCHEM_ATOM_DEF_STEREO_COUNT>
2

> <PUBCHEM_ATOM_UDEF_STEREO_COUNT>
0

> <PUBCHEM_BOND_DEF_STEREO_COUNT>
0

> <PUBCHEM_BOND_UDEF_STEREO_COUNT>
0

> <PUBCHEM_ISOTOPIC_ATOM_COUNT>
0

> <PUBCHEM_COMPONENT_COUNT>
1

> <PUBCHEM_CACTVS_TAUTO_COUNT>
6

> <PUBCHEM_CONFORMER_ID>
0362502500000001

> <PUBCHEM_MMFF94_ENERGY>
79.8783

> <PUBCHEM_FEATURE_SELFOVERLAP>
45.673

> <PUBCHEM_SHAPE_FINGERPRINT>
10 15 16128378211192238123
11961588 58 8862943853527054493
12166972 35 18186241744860691724
12760667 363 18334577953949436643
13103583 49 17917443076835812379
13533116 47 18335422413234019040
13782708 43 18187639223844033159
14068700 675 18409171008546699472
14211702 104 18270964523440271662
14251764 30 18411697720880209859
14930077 153 11387238984072385859
15183329 4 12685082696751813839
15198563 99 16805589370945669279
15347591 1 18409728435679340452
15510800 12 17895202124816036851
15840311 113 11455901273002107483
17492 89 18270685251565285054
20028762 73 18341614798340024238
2026 5 18113893832224340386
21033648 144 11240004430337985347
21267235 1 18411984650803029142
21344244 181 17530969128417352675
21639891 77 18272364231538696113
23522609 53 18121815873842959157
255183 313 16487249971908839725
2838139 119 10231490592046896107
3383291 50 18260544528668687074
3411729 13 17057527225474221697
3886686 26 17479186258254995302
406291 66 18260824878574786954
4112364 45 13757789399453243939
439807 62 18408323293824625519
44880568 143 16443339867104991630
474113 269 18272078427825294751
5104073 3 18131347480341096632
513202 73 18408888434665132961
54039377 194 18410857651158205678
5718773 13 18334010580106068266
57527293 21 16916772046633391076
57527295 17 16443898350419596080
58083652 198 17774426274515996617
6327066 14 9079118856165238987
636775 8 18342183224893355934

> <PUBCHEM_SHAPE_MULTIPOLES>
542.79
20.74
3.46
1.37
2.46
0.11
-0.13
-25.74
5.38
0.12
0.7
-0.71
0.57
-0.76

> <PUBCHEM_SHAPE_SELFOVERLAP>
1145.889

> <PUBCHEM_SHAPE_VOLUME>
300.1

> <PUBCHEM_COORDINATE_TYPE>
2
5
10

$$$$
