26744756
  -OEChem-12032416403D

 47 51  0     1  0  0  0  0  0999 V2000
    1.0467   -1.9733    2.0072 O   0  0  0  0  0  0  0  0  0  0  0  0
   -1.7384   -0.4168    0.4844 N   0  0  1  0  0  0  0  0  0  0  0  0
   -4.8075   -2.0591   -0.9121 N   0  0  0  0  0  0  0  0  0  0  0  0
   -3.4087   -3.6936   -1.5206 N   0  0  0  0  0  0  0  0  0  0  0  0
    1.3550   -1.1282   -0.0441 N   0  0  0  0  0  0  0  0  0  0  0  0
    2.4241   -1.7532    1.8795 N   0  0  0  0  0  0  0  0  0  0  0  0
    0.8494    4.9329   -1.9309 N   0  0  0  0  0  0  0  0  0  0  0  0
   -1.0223   -1.7189    0.7131 C   0  0  1  0  0  0  0  0  0  0  0  0
   -1.3219   -2.7737   -0.4106 C   0  0  0  0  0  0  0  0  0  0  0  0
   -3.2204   -0.5853    0.4502 C   0  0  0  0  0  0  0  0  0  0  0  0
   -3.5910   -1.7432   -0.3882 C   0  0  0  0  0  0  0  0  0  0  0  0
   -2.7548   -2.7603   -0.7678 C   0  0  0  0  0  0  0  0  0  0  0  0
   -1.4163    0.5856    1.5091 C   0  0  0  0  0  0  0  0  0  0  0  0
    0.4921   -1.5794    0.8310 C   0  0  0  0  0  0  0  0  0  0  0  0
   -1.6210    1.9892    1.0042 C   0  0  0  0  0  0  0  0  0  0  0  0
   -4.6467   -3.2440   -1.5872 C   0  0  0  0  0  0  0  0  0  0  0  0
   -0.6885    2.5642    0.1407 C   0  0  0  0  0  0  0  0  0  0  0  0
   -2.7452    2.7143    1.3996 C   0  0  0  0  0  0  0  0  0  0  0  0
    2.5265   -1.2543    0.6441 C   0  0  0  0  0  0  0  0  0  0  0  0
   -0.8800    3.8643   -0.3272 C   0  0  0  0  0  0  0  0  0  0  0  0
   -2.9368    4.0143    0.9314 C   0  0  0  0  0  0  0  0  0  0  0  0
    3.7836   -0.8736    0.0674 C   0  0  0  0  0  0  0  0  0  0  0  0
   -2.0042    4.5894    0.0683 C   0  0  0  0  0  0  0  0  0  0  0  0
    3.8291   -0.3596   -1.2285 C   0  0  0  0  0  0  0  0  0  0  0  0
    4.9603   -1.0183    0.8022 C   0  0  0  0  0  0  0  0  0  0  0  0
    0.0743    4.4539   -1.2121 C   0  0  0  0  0  0  0  0  0  0  0  0
    5.0516    0.0099   -1.7897 C   0  0  0  0  0  0  0  0  0  0  0  0
    6.1828   -0.6488    0.2411 C   0  0  0  0  0  0  0  0  0  0  0  0
    6.2283   -0.1344   -1.0548 C   0  0  0  0  0  0  0  0  0  0  0  0
   -1.3902   -2.1332    1.6643 H   0  0  0  0  0  0  0  0  0  0  0  0
   -1.0243   -3.7726   -0.0703 H   0  0  0  0  0  0  0  0  0  0  0  0
   -0.7384   -2.5473   -1.3123 H   0  0  0  0  0  0  0  0  0  0  0  0
   -3.6885    0.3150    0.0370 H   0  0  0  0  0  0  0  0  0  0  0  0
   -3.6209   -0.7502    1.4589 H   0  0  0  0  0  0  0  0  0  0  0  0
   -0.3635    0.5384    1.8128 H   0  0  0  0  0  0  0  0  0  0  0  0
   -1.9731    0.4132    2.4404 H   0  0  0  0  0  0  0  0  0  0  0  0
   -5.6654   -1.5310   -0.8211 H   0  0  0  0  0  0  0  0  0  0  0  0
   -5.4682   -3.7212   -2.1023 H   0  0  0  0  0  0  0  0  0  0  0  0
    0.1874    1.9959   -0.1663 H   0  0  0  0  0  0  0  0  0  0  0  0
   -3.4800    2.2783    2.0713 H   0  0  0  0  0  0  0  0  0  0  0  0
   -3.8124    4.5786    1.2390 H   0  0  0  0  0  0  0  0  0  0  0  0
   -2.1677    5.6037   -0.2880 H   0  0  0  0  0  0  0  0  0  0  0  0
    2.9298   -0.2346   -1.8264 H   0  0  0  0  0  0  0  0  0  0  0  0
    4.9641   -1.4151    1.8143 H   0  0  0  0  0  0  0  0  0  0  0  0
    5.0875    0.4104   -2.7986 H   0  0  0  0  0  0  0  0  0  0  0  0
    7.0994   -0.7611    0.8128 H   0  0  0  0  0  0  0  0  0  0  0  0
    7.1801    0.1534   -1.4916 H   0  0  0  0  0  0  0  0  0  0  0  0
  1  6  1  0  0  0  0
  1 14  1  0  0  0  0
  2  8  1  0  0  0  0
  2 10  1  0  0  0  0
  2 13  1  0  0  0  0
  3 11  1  0  0  0  0
  3 16  1  0  0  0  0
  3 37  1  0  0  0  0
  4 12  1  0  0  0  0
  4 16  2  0  0  0  0
  5 14  2  0  0  0  0
  5 19  1  0  0  0  0
  6 19  2  0  0  0  0
  7 26  3  0  0  0  0
  8  9  1  0  0  0  0
  8 14  1  0  0  0  0
  8 30  1  0  0  0  0
  9 12  1  0  0  0  0
  9 31  1  0  0  0  0
  9 32  1  0  0  0  0
 10 11  1  0  0  0  0
 10 33  1  0  0  0  0
 10 34  1  0  0  0  0
 11 12  2  0  0  0  0
 13 15  1  0  0  0  0
 13 35  1  0  0  0  0
 13 36  1  0  0  0  0
 15 17  1  0  0  0  0
 15 18  2  0  0  0  0
 16 38  1  0  0  0  0
 17 20  2  0  0  0  0
 17 39  1  0  0  0  0
 18 21  1  0  0  0  0
 18 40  1  0  0  0  0
 19 22  1  0  0  0  0
 20 23  1  0  0  0  0
 20 26  1  0  0  0  0
 21 23  2  0  0  0  0
 21 41  1  0  0  0  0
 22 24  2  0  0  0  0
 22 25  1  0  0  0  0
 23 42  1  0  0  0  0
 24 27  1  0  0  0  0
 24 43  1  0  0  0  0
 25 28  2  0  0  0  0
 25 44  1  0  0  0  0
 27 29  2  0  0  0  0
 27 45  1  0  0  0  0
 28 29  1  0  0  0  0
 28 46  1  0  0  0  0
 29 47  1  0  0  0  0
M  END
> <PUBCHEM_COMPOUND_CID>
26744756

> <PUBCHEM_CONFORMER_RMSD>
0.8

> <PUBCHEM_CONFORMER_DIVERSEORDER>
1
18
42
49
81
72
32
96
68
44
102
53
78
34
4
23
33
86
48
54
80
85
21
30
14
6
63
93
17
64
74
103
43
28
82
67
45
26
69
71
59
61
76
79
51
25
47
89
91
73
94
62
57
27
83
29
75
20
99
108
65
56
58
98
5
105
24
84
101
36
9
95
90
52
31
77
19
37
92
2
7
70
13
3
41
100
88
55
8
12
39
38
104
66
22
50
97
40
35
60
46
15
87
11
10
107
106
16

> <PUBCHEM_MMFF94_PARTIAL_CHARGES>
40
1 -0.02
10 0.45
11 -0.33
12 0.05
13 0.41
14 0.3
15 -0.14
16 0.04
17 -0.15
18 -0.15
19 0.46
2 -0.81
20 0.07
21 -0.15
22 0.05
23 -0.15
24 -0.15
25 -0.15
26 0.48
27 -0.15
28 -0.15
29 -0.15
3 0.03
37 0.27
38 0.15
39 0.15
4 -0.57
40 0.15
41 0.15
42 0.15
43 0.15
44 0.15
45 0.15
46 0.15
47 0.15
5 -0.57
6 -0.41
7 -0.56
8 0.45
9 0.18

> <PUBCHEM_EFFECTIVE_ROTOR_COUNT>
4.8

> <PUBCHEM_PHARMACOPHORE_FEATURES>
10
1 2 cation
1 3 donor
1 7 acceptor
3 3 4 16 cation
3 5 6 19 cation
5 1 5 6 14 19 rings
5 3 4 11 12 16 rings
6 15 17 18 20 21 23 rings
6 2 8 9 10 11 12 rings
6 22 24 25 27 28 29 rings

> <PUBCHEM_HEAVY_ATOM_COUNT>
29

> <PUBCHEM_ATOM_DEF_STEREO_COUNT>
1

> <PUBCHEM_ATOM_UDEF_STEREO_COUNT>
0

> <PUBCHEM_BOND_DEF_STEREO_COUNT>
0

> <PUBCHEM_BOND_UDEF_STEREO_COUNT>
0

> <PUBCHEM_ISOTOPIC_ATOM_COUNT>
0

> <PUBCHEM_COMPONENT_COUNT>
1

> <PUBCHEM_CACTVS_TAUTO_COUNT>
2

> <PUBCHEM_CONFORMER_ID>
019817B400000001

> <PUBCHEM_MMFF94_ENERGY>
61.9371

> <PUBCHEM_FEATURE_SELFOVERLAP>
50.848

> <PUBCHEM_SHAPE_FINGERPRINT>
10087517 78 18409450302402807776
10871710 139 18335711498359807649
10940486 97 17916019247859468551
11477941 20 18272086154112491068
11488393 25 17257652742823336435
12788726 201 18409720743023421179
13383668 90 18128562409082992158
13617811 41 18341327881170186591
13761468 95 18116994377688601926
14068700 675 18340200894498636389
14114211 80 17767698160949899424
14294032 229 18270408165834135137
14556957 393 18335709381067447556
14910302 57 17917442977709303910
14955137 171 18195820780662605867
15198563 99 18342455941819469741
15444296 121 18340497759504452435
15968369 26 17186417579219119907
16992828 155 18043254535551425892
17627616 140 17900560157132914924
17686467 74 18128533955050768610
20642791 239 18188479272788078931
21033648 29 14851883733739897534
21033650 10 18194991607377255678
21344244 246 17692527127690558118
21641784 216 18410013234474753086
22907989 373 18193541299493800271
23559900 14 17839164553261674527
23576562 1 18124294251257651175
255183 313 18127711347948137937
255183 451 17841704420863858567
3388396 114 18048893071833934308
3610482 184 17899166895859400118
4046055 25 18271237330540112926
4280585 95 18269825570558058466
46194498 28 17417530324153060986
469060 322 18265076706981305075
5252454 2 18124033421349903592
531348 171 18198071287685950806
6608658 132 18335430062496569942
6700243 42 17844273841734417054
7808743 9 18266742372819088184

> <PUBCHEM_SHAPE_MULTIPOLES>
561.05
10.87
6.71
1.71
17.74
8.43
-0.09
-6.37
-3.19
-9.95
-2.85
0.31
-0.03
-3.61

> <PUBCHEM_SHAPE_SELFOVERLAP>
1243.448

> <PUBCHEM_SHAPE_VOLUME>
298.4

> <PUBCHEM_COORDINATE_TYPE>
2
5
10

$$$$
