40777613
  -OEChem-12032416173D

 54 57  0     1  0  0  0  0  0999 V2000
   -4.9610    1.4191    0.3961 S   0  0  0  0  0  0  0  0  0  0  0  0
   -5.8686    2.0326   -0.5545 O   0  0  0  0  0  0  0  0  0  0  0  0
   -5.0808    1.7109    1.8118 O   0  0  0  0  0  0  0  0  0  0  0  0
   -3.3571    1.7024   -0.0914 N   0  0  0  0  0  0  0  0  0  0  0  0
    2.8953   -0.8011   -0.6079 N   0  0  0  0  0  0  0  0  0  0  0  0
    3.0078   -0.3863   -1.8813 N   0  0  0  0  0  0  0  0  0  0  0  0
   -0.1954    1.1624   -0.7175 C   0  0  2  0  0  0  0  0  0  0  0  0
   -1.3683    0.2439   -0.3154 C   0  0  0  0  0  0  0  0  0  0  0  0
   -2.2394    1.0676    0.6392 C   0  0  1  0  0  0  0  0  0  0  0  0
    1.1091    0.4212   -0.9014 C   0  0  0  0  0  0  0  0  0  0  0  0
   -0.1870    2.1803    0.3858 C   0  0  0  0  0  0  0  0  0  0  0  0
   -1.3046    2.1280    1.1177 C   0  0  0  0  0  0  0  0  0  0  0  0
    1.7753   -0.3453    0.0232 C   0  0  0  0  0  0  0  0  0  0  0  0
    1.9138    0.3599   -2.0549 C   0  0  0  0  0  0  0  0  0  0  0  0
    1.4546   -0.6796    1.4239 C   0  0  0  0  0  0  0  0  0  0  0  0
    3.9211   -1.6516   -0.0502 C   0  0  0  0  0  0  0  0  0  0  0  0
    1.6751    1.0047   -3.3582 C   0  0  0  0  0  0  0  0  0  0  0  0
   -5.0897   -0.3349    0.2181 C   0  0  0  0  0  0  0  0  0  0  0  0
    5.1688   -0.9021    0.3463 C   0  0  0  0  0  0  0  0  0  0  0  0
   -4.7685   -1.1698    1.2884 C   0  0  0  0  0  0  0  0  0  0  0  0
   -5.5088   -0.8842   -0.9935 C   0  0  0  0  0  0  0  0  0  0  0  0
    6.0861   -0.5104   -0.6288 C   0  0  0  0  0  0  0  0  0  0  0  0
    5.4053   -0.6009    1.6874 C   0  0  0  0  0  0  0  0  0  0  0  0
   -4.8664   -2.5541    1.1470 C   0  0  0  0  0  0  0  0  0  0  0  0
   -5.6067   -2.2683   -1.1350 C   0  0  0  0  0  0  0  0  0  0  0  0
    7.2400    0.1827   -0.2626 C   0  0  0  0  0  0  0  0  0  0  0  0
    6.5589    0.0923    2.0537 C   0  0  0  0  0  0  0  0  0  0  0  0
   -5.2855   -3.1033   -0.0647 C   0  0  0  0  0  0  0  0  0  0  0  0
    7.4764    0.4839    1.0786 C   0  0  0  0  0  0  0  0  0  0  0  0
   -0.4491    1.6839   -1.6496 H   0  0  0  0  0  0  0  0  0  0  0  0
   -1.9183   -0.0971   -1.2014 H   0  0  0  0  0  0  0  0  0  0  0  0
   -1.0296   -0.6646    0.1963 H   0  0  0  0  0  0  0  0  0  0  0  0
   -2.5765    0.4656    1.4844 H   0  0  0  0  0  0  0  0  0  0  0  0
    0.6082    2.8946    0.5472 H   0  0  0  0  0  0  0  0  0  0  0  0
   -1.5158    2.7869    1.9480 H   0  0  0  0  0  0  0  0  0  0  0  0
   -3.1582    2.0889   -1.0222 H   0  0  0  0  0  0  0  0  0  0  0  0
    2.2957   -0.4505    2.0851 H   0  0  0  0  0  0  0  0  0  0  0  0
    0.5989   -0.1213    1.8082 H   0  0  0  0  0  0  0  0  0  0  0  0
    1.2191   -1.7446    1.5205 H   0  0  0  0  0  0  0  0  0  0  0  0
    4.1664   -2.4094   -0.8058 H   0  0  0  0  0  0  0  0  0  0  0  0
    3.5093   -2.2064    0.7996 H   0  0  0  0  0  0  0  0  0  0  0  0
    1.6279    2.0927   -3.2456 H   0  0  0  0  0  0  0  0  0  0  0  0
    2.4694    0.7781   -4.0774 H   0  0  0  0  0  0  0  0  0  0  0  0
    0.7284    0.6622   -3.7886 H   0  0  0  0  0  0  0  0  0  0  0  0
   -4.4451   -0.7675    2.2440 H   0  0  0  0  0  0  0  0  0  0  0  0
   -5.7565   -0.2520   -1.8415 H   0  0  0  0  0  0  0  0  0  0  0  0
    5.9186   -0.7431   -1.6769 H   0  0  0  0  0  0  0  0  0  0  0  0
    4.7019   -0.9026    2.4584 H   0  0  0  0  0  0  0  0  0  0  0  0
   -4.6172   -3.2043    1.9805 H   0  0  0  0  0  0  0  0  0  0  0  0
   -5.9313   -2.6964   -2.0789 H   0  0  0  0  0  0  0  0  0  0  0  0
    7.9550    0.4866   -1.0216 H   0  0  0  0  0  0  0  0  0  0  0  0
    6.7435    0.3262    3.0980 H   0  0  0  0  0  0  0  0  0  0  0  0
   -5.3615   -4.1811   -0.1750 H   0  0  0  0  0  0  0  0  0  0  0  0
    8.3750    1.0231    1.3639 H   0  0  0  0  0  0  0  0  0  0  0  0
  1  2  2  0  0  0  0
  1  3  2  0  0  0  0
  1  4  1  0  0  0  0
  1 18  1  0  0  0  0
  4  9  1  0  0  0  0
  4 36  1  0  0  0  0
  5  6  1  0  0  0  0
  5 13  1  0  0  0  0
  5 16  1  0  0  0  0
  6 14  2  0  0  0  0
  7  8  1  0  0  0  0
  7 10  1  0  0  0  0
  7 11  1  0  0  0  0
  7 30  1  0  0  0  0
  8  9  1  0  0  0  0
  8 31  1  0  0  0  0
  8 32  1  0  0  0  0
  9 12  1  0  0  0  0
  9 33  1  0  0  0  0
 10 13  2  0  0  0  0
 10 14  1  0  0  0  0
 11 12  2  0  0  0  0
 11 34  1  0  0  0  0
 12 35  1  0  0  0  0
 13 15  1  0  0  0  0
 14 17  1  0  0  0  0
 15 37  1  0  0  0  0
 15 38  1  0  0  0  0
 15 39  1  0  0  0  0
 16 19  1  0  0  0  0
 16 40  1  0  0  0  0
 16 41  1  0  0  0  0
 17 42  1  0  0  0  0
 17 43  1  0  0  0  0
 17 44  1  0  0  0  0
 18 20  2  0  0  0  0
 18 21  1  0  0  0  0
 19 22  2  0  0  0  0
 19 23  1  0  0  0  0
 20 24  1  0  0  0  0
 20 45  1  0  0  0  0
 21 25  2  0  0  0  0
 21 46  1  0  0  0  0
 22 26  1  0  0  0  0
 22 47  1  0  0  0  0
 23 27  2  0  0  0  0
 23 48  1  0  0  0  0
 24 28  2  0  0  0  0
 24 49  1  0  0  0  0
 25 28  1  0  0  0  0
 25 50  1  0  0  0  0
 26 29  2  0  0  0  0
 26 51  1  0  0  0  0
 27 29  1  0  0  0  0
 27 52  1  0  0  0  0
 28 53  1  0  0  0  0
 29 54  1  0  0  0  0
M  END
> <PUBCHEM_COMPOUND_CID>
40777613

> <PUBCHEM_CONFORMER_RMSD>
0.8

> <PUBCHEM_CONFORMER_DIVERSEORDER>
12
54
192
128
97
156
180
211
190
102
45
36
99
34
181
95
109
124
98
171
118
153
231
69
182
143
130
79
41
104
168
132
149
178
245
134
241
72
251
176
248
197
220
20
115
186
225
236
111
114
194
88
201
47
173
101
206
135
78
183
155
158
63
198
235
146
227
4
137
221
94
159
22
90
242
223
253
232
136
244
234
151
228
237
179
110
126
107
210
139
147
163
215
252
112
82
216
140
123
208
249
46
37
217
174
56
239
66
138
160
222
11
205
117
219
91
202
76
93
55
203
169
18
60
81
167
229
196
142
189
51
199
175
133
122
10
165
166
14
162
24
8
25
152
148
119
177
26
121
42
15
200
250
85
154
204
16
187
207
129
73
57
195
105
164
92
70
64
170
39
240
100
193
157
77
89
80
59
35
191
161
87
214
108
28
52
185
188
238
65
50
213
212
209
145
218
247
226
3
17
230
131
62
13
103
58
32
29
9
150
127
144
243
120
7
44
19
49
23
27
172
74
96
40
75
30
106
53
21
38
84
67
2
116
224
5
233
141
71
246
86
61
125
83
68
31
48
1
43
184
6
33
113

> <PUBCHEM_MMFF94_PARTIAL_CHARGES>
41
1 1.45
10 -0.18
11 -0.29
12 -0.29
13 -0.33
14 0.11
15 0.18
16 0.4
17 0.18
18 -0.01
19 -0.14
2 -0.65
20 -0.15
21 -0.15
22 -0.15
23 -0.15
24 -0.15
25 -0.15
26 -0.15
27 -0.15
28 -0.15
29 -0.15
3 -0.65
34 0.15
35 0.15
36 0.42
4 -0.91
45 0.15
46 0.15
47 0.15
48 0.15
49 0.15
5 0.31
50 0.15
51 0.15
52 0.15
53 0.15
54 0.15
6 -0.71
7 0.32
9 0.49

> <PUBCHEM_EFFECTIVE_ROTOR_COUNT>
6.6

> <PUBCHEM_PHARMACOPHORE_FEATURES>
8
1 2 acceptor
1 3 acceptor
1 4 donor
1 6 acceptor
5 5 6 10 13 14 rings
5 7 8 9 11 12 rings
6 18 20 21 24 25 28 rings
6 19 22 23 26 27 29 rings

> <PUBCHEM_HEAVY_ATOM_COUNT>
29

> <PUBCHEM_ATOM_DEF_STEREO_COUNT>
2

> <PUBCHEM_ATOM_UDEF_STEREO_COUNT>
0

> <PUBCHEM_BOND_DEF_STEREO_COUNT>
0

> <PUBCHEM_BOND_UDEF_STEREO_COUNT>
0

> <PUBCHEM_ISOTOPIC_ATOM_COUNT>
0

> <PUBCHEM_COMPONENT_COUNT>
1

> <PUBCHEM_CACTVS_TAUTO_COUNT>
1

> <PUBCHEM_CONFORMER_ID>
026E378D0000000C

> <PUBCHEM_MMFF94_ENERGY>
47.8907

> <PUBCHEM_FEATURE_SELFOVERLAP>
40.616

> <PUBCHEM_SHAPE_FINGERPRINT>
10055352 69 18057039323936294000
10794284 68 17198538531427347036
11315181 36 17988922263365000665
12166972 35 17822013150693138052
12390115 104 9223235148369222217
12596602 18 18411133607085727114
12616971 3 17749688323984997693
12712778 12 18411981395028291263
12730499 353 17131834249410592438
14068700 675 17968092036471508692
14251752 14 11025795397044284912
14461889 52 18272364274851839514
15021287 119 17095531686248036093
15183329 4 8790887376227875344
15728490 51 18410574011638868078
17857418 61 17967253095929490919
19611394 137 17917993910195992178
20028762 73 18113899364711656674
21223535 225 15792001230889557253
21315763 178 17894910689730545067
21365058 27 14333126407955088404
21458453 9 17632003226197452200
21623969 137 16558752321127835774
21781051 124 17131840837885208734
23559900 14 18412538804299847289
24771293 8 17821731654858763092
249057 3 17894630323720742117
2747138 104 17917712405508295736
2838139 119 11167941368174108682
3009799 131 14923941254667863900
38570 142 11959735988219769436
397830 11 18130502028749750032
4015057 19 16443642292748029157
4058900 60 11959737048829584053
4073 2 18060143093982133787
439807 62 17604721109277825691
4403749 210 18201988945771418151
4625314 4 18410292472248398980
49967989 163 18042704934261485834
5364581 5 17846776347347722017
5381727 24 18411695501463630642
6673363 416 18201168728412122720

> <PUBCHEM_SHAPE_MULTIPOLES>
573.97
19.87
2.47
2.06
12.66
0.61
1.01
6.71
-5.25
-5.33
-0.26
1.55
-0.46
-1.17

> <PUBCHEM_SHAPE_SELFOVERLAP>
1226.581

> <PUBCHEM_SHAPE_VOLUME>
320.6

> <PUBCHEM_COORDINATE_TYPE>
2
5
10

$$$$
