7673042
  -OEChem-12032416283D

 61 66  0     1  0  0  0  0  0999 V2000
   -3.2988    1.5772   -0.2594 S   0  0  0  0  0  0  0  0  0  0  0  0
   -1.7595   -1.0687    1.8618 O   0  0  0  0  0  0  0  0  0  0  0  0
    5.2625    4.2297    1.2383 O   0  0  0  0  0  0  0  0  0  0  0  0
    2.8990   -1.3008    0.0249 N   0  0  2  0  0  0  0  0  0  0  0  0
   -0.1753   -2.0369    0.4492 N   0  0  0  0  0  0  0  0  0  0  0  0
    5.0963    2.3085   -0.0574 N   0  0  0  0  0  0  0  0  0  0  0  0
    1.9274   -3.2115    1.3255 C   0  0  1  0  0  0  0  0  0  0  0  0
    1.5303   -3.0714   -1.0865 C   0  0  2  0  0  0  0  0  0  0  0  0
    1.8125   -4.0437    0.0555 C   0  0  0  0  0  0  0  0  0  0  0  0
    3.0715   -2.1851    1.1840 C   0  0  0  0  0  0  0  0  0  0  0  0
    2.7009   -2.0697   -1.2129 C   0  0  0  0  0  0  0  0  0  0  0  0
    4.0267   -0.3815   -0.1052 C   0  0  0  0  0  0  0  0  0  0  0  0
    0.5722   -2.5484    1.6068 C   0  0  0  0  0  0  0  0  0  0  0  0
    0.2239   -2.3344   -0.8565 C   0  0  0  0  0  0  0  0  0  0  0  0
    3.7722    0.6048   -1.2525 C   0  0  0  0  0  0  0  0  0  0  0  0
    4.2452    0.3738    1.2121 C   0  0  0  0  0  0  0  0  0  0  0  0
    4.8961    1.6366   -1.3474 C   0  0  0  0  0  0  0  0  0  0  0  0
    5.3590    1.4096    1.0685 C   0  0  0  0  0  0  0  0  0  0  0  0
   -0.5338   -1.9535   -1.8975 C   0  0  0  0  0  0  0  0  0  0  0  0
   -1.3598   -1.3247    0.7247 C   0  0  0  0  0  0  0  0  0  0  0  0
   -2.1671   -0.8842   -0.4652 C   0  0  0  0  0  0  0  0  0  0  0  0
   -1.7473   -1.2132   -1.6956 C   0  0  0  0  0  0  0  0  0  0  0  0
    5.0918    3.6885    0.1429 C   0  0  0  0  0  0  0  0  0  0  0  0
   -3.3682   -0.1295   -0.2916 C   0  0  0  0  0  0  0  0  0  0  0  0
    4.8587    4.5471   -1.0744 C   0  0  0  0  0  0  0  0  0  0  0  0
   -4.6603   -0.5870   -0.1356 C   0  0  0  0  0  0  0  0  0  0  0  0
   -5.6195    0.4705    0.0137 C   0  0  0  0  0  0  0  0  0  0  0  0
   -5.0023    1.7241   -0.0357 C   0  0  0  0  0  0  0  0  0  0  0  0
   -7.0231    0.4220    0.1938 C   0  0  0  0  0  0  0  0  0  0  0  0
   -5.7436    2.9155    0.0886 C   0  0  0  0  0  0  0  0  0  0  0  0
   -7.7613    1.6020    0.3177 C   0  0  0  0  0  0  0  0  0  0  0  0
   -7.1262    2.8345    0.2654 C   0  0  0  0  0  0  0  0  0  0  0  0
    2.1725   -3.8664    2.1711 H   0  0  0  0  0  0  0  0  0  0  0  0
    1.4686   -3.6499   -2.0178 H   0  0  0  0  0  0  0  0  0  0  0  0
    1.0113   -4.7876    0.1469 H   0  0  0  0  0  0  0  0  0  0  0  0
    2.7436   -4.5934   -0.1290 H   0  0  0  0  0  0  0  0  0  0  0  0
    3.0661   -1.6228    2.1227 H   0  0  0  0  0  0  0  0  0  0  0  0
    4.0268   -2.7236    1.1217 H   0  0  0  0  0  0  0  0  0  0  0  0
    3.6152   -2.6172   -1.4797 H   0  0  0  0  0  0  0  0  0  0  0  0
    2.4524   -1.4187   -2.0566 H   0  0  0  0  0  0  0  0  0  0  0  0
    4.9444   -0.9445   -0.3303 H   0  0  0  0  0  0  0  0  0  0  0  0
   -0.0871   -3.2900    2.0786 H   0  0  0  0  0  0  0  0  0  0  0  0
    0.6824   -1.7371    2.3373 H   0  0  0  0  0  0  0  0  0  0  0  0
    2.8165    1.1240   -1.1011 H   0  0  0  0  0  0  0  0  0  0  0  0
    3.7318    0.1087   -2.2268 H   0  0  0  0  0  0  0  0  0  0  0  0
    4.5586   -0.2881    2.0255 H   0  0  0  0  0  0  0  0  0  0  0  0
    3.3200    0.8781    1.5210 H   0  0  0  0  0  0  0  0  0  0  0  0
    4.6685    2.3451   -2.1458 H   0  0  0  0  0  0  0  0  0  0  0  0
    5.8429    1.1484   -1.6078 H   0  0  0  0  0  0  0  0  0  0  0  0
    6.3199    0.9174    0.8759 H   0  0  0  0  0  0  0  0  0  0  0  0
    5.4621    1.9731    2.0013 H   0  0  0  0  0  0  0  0  0  0  0  0
   -0.2425   -2.1666   -2.9207 H   0  0  0  0  0  0  0  0  0  0  0  0
   -2.2974   -0.9218   -2.5858 H   0  0  0  0  0  0  0  0  0  0  0  0
    4.9033    5.6028   -0.7890 H   0  0  0  0  0  0  0  0  0  0  0  0
    3.8682    4.3483   -1.4921 H   0  0  0  0  0  0  0  0  0  0  0  0
    5.6352    4.3642   -1.8218 H   0  0  0  0  0  0  0  0  0  0  0  0
   -4.9186   -1.6397   -0.1272 H   0  0  0  0  0  0  0  0  0  0  0  0
   -7.5349   -0.5363    0.2369 H   0  0  0  0  0  0  0  0  0  0  0  0
   -5.2549    3.8849    0.0488 H   0  0  0  0  0  0  0  0  0  0  0  0
   -8.8377    1.5516    0.4556 H   0  0  0  0  0  0  0  0  0  0  0  0
   -7.7086    3.7467    0.3626 H   0  0  0  0  0  0  0  0  0  0  0  0
  1 24  1  0  0  0  0
  1 28  1  0  0  0  0
  2 20  2  0  0  0  0
  3 23  2  0  0  0  0
  4 10  1  0  0  0  0
  4 11  1  0  0  0  0
  4 12  1  0  0  0  0
  5 13  1  0  0  0  0
  5 14  1  0  0  0  0
  5 20  1  0  0  0  0
  6 17  1  0  0  0  0
  6 18  1  0  0  0  0
  6 23  1  0  0  0  0
  7  9  1  0  0  0  0
  7 10  1  0  0  0  0
  7 13  1  0  0  0  0
  7 33  1  0  0  0  0
  8  9  1  0  0  0  0
  8 11  1  0  0  0  0
  8 14  1  0  0  0  0
  8 34  1  0  0  0  0
  9 35  1  0  0  0  0
  9 36  1  0  0  0  0
 10 37  1  0  0  0  0
 10 38  1  0  0  0  0
 11 39  1  0  0  0  0
 11 40  1  0  0  0  0
 12 15  1  0  0  0  0
 12 16  1  0  0  0  0
 12 41  1  0  0  0  0
 13 42  1  0  0  0  0
 13 43  1  0  0  0  0
 14 19  2  0  0  0  0
 15 17  1  0  0  0  0
 15 44  1  0  0  0  0
 15 45  1  0  0  0  0
 16 18  1  0  0  0  0
 16 46  1  0  0  0  0
 16 47  1  0  0  0  0
 17 48  1  0  0  0  0
 17 49  1  0  0  0  0
 18 50  1  0  0  0  0
 18 51  1  0  0  0  0
 19 22  1  0  0  0  0
 19 52  1  0  0  0  0
 20 21  1  0  0  0  0
 21 22  2  0  0  0  0
 21 24  1  0  0  0  0
 22 53  1  0  0  0  0
 23 25  1  0  0  0  0
 24 26  2  0  0  0  0
 25 54  1  0  0  0  0
 25 55  1  0  0  0  0
 25 56  1  0  0  0  0
 26 27  1  0  0  0  0
 26 57  1  0  0  0  0
 27 28  1  0  0  0  0
 27 29  2  0  0  0  0
 28 30  2  0  0  0  0
 29 31  1  0  0  0  0
 29 58  1  0  0  0  0
 30 32  1  0  0  0  0
 30 59  1  0  0  0  0
 31 32  2  0  0  0  0
 31 60  1  0  0  0  0
 32 61  1  0  0  0  0
M  END
> <PUBCHEM_COMPOUND_CID>
7673042

> <PUBCHEM_CONFORMER_RMSD>
0.8

> <PUBCHEM_CONFORMER_DIVERSEORDER>
1
22
16
14
5
24
21
15
18
9
13
12
6
20
3
17
23
7
11
10
4
19
8
2

> <PUBCHEM_MMFF94_PARTIAL_CHARGES>
34
1 -0.08
10 0.27
11 0.27
12 0.27
13 0.3
14 -0.03
17 0.3
18 0.3
19 -0.15
2 -0.57
20 0.62
21 0.06
22 -0.15
23 0.57
24 -0.01
25 0.06
26 -0.15
28 0.04
29 -0.15
3 -0.57
30 -0.15
31 -0.15
32 -0.15
4 -0.81
5 -0.47
52 0.15
53 0.15
57 0.15
58 0.15
59 0.15
6 -0.66
60 0.15
61 0.15
8 0.14

> <PUBCHEM_EFFECTIVE_ROTOR_COUNT>
5.2

> <PUBCHEM_PHARMACOPHORE_FEATURES>
9
1 2 acceptor
1 3 acceptor
1 4 cation
5 1 24 26 27 28 rings
6 27 28 29 30 31 32 rings
6 4 7 8 9 10 11 rings
6 5 14 19 20 21 22 rings
6 5 7 8 9 13 14 rings
6 6 12 15 16 17 18 rings

> <PUBCHEM_HEAVY_ATOM_COUNT>
32

> <PUBCHEM_ATOM_DEF_STEREO_COUNT>
2

> <PUBCHEM_ATOM_UDEF_STEREO_COUNT>
0

> <PUBCHEM_BOND_DEF_STEREO_COUNT>
0

> <PUBCHEM_BOND_UDEF_STEREO_COUNT>
0

> <PUBCHEM_ISOTOPIC_ATOM_COUNT>
0

> <PUBCHEM_COMPONENT_COUNT>
1

> <PUBCHEM_CACTVS_TAUTO_COUNT>
1

> <PUBCHEM_CONFORMER_ID>
007514D200000001

> <PUBCHEM_MMFF94_ENERGY>
78.7375

> <PUBCHEM_FEATURE_SELFOVERLAP>
47.287

> <PUBCHEM_SHAPE_FINGERPRINT>
10673678 19 18343304751679004115
10675989 125 18341896277405889880
10816530 23 18409170987552827491
10864689 126 18198631119688677288
10917259 69 18192436501733370692
10928967 22 10086272671577144444
10937287 8 18339641256545547622
11386260 185 17982729675820994671
11505856 67 17981035633045154310
11578821 258 18196089942585951937
11720765 8 17917161486185135886
11761917 116 8645955294701987384
11796584 16 7852699440522561235
12047536 79 14056716872238326575
12633257 1 16153988062271149014
13782708 43 9583508812223421609
13944108 23 18341052900373833776
14168556 18 18265337377896218355
14251764 30 9151184142151964352
14251764 75 18411134783532362300
14347332 77 9943518601666119779
14565420 104 18261108582143229730
14739800 52 18335420123831476719
14849402 71 18261671468352779378
15142526 21 18333449863113634922
15198563 99 17551792950903462966
15406563 185 18198368236934230756
15439362 3 18343021112856817910
15475509 35 10953757615500544391
15475509 8 13326858821113063675
15510800 12 9295022202285774056
15513586 35 16087844930516449060
155225 6 18337676428824204468
15840311 113 18336831867250859805
15979999 66 17768825160795625230
19053607 189 18268144434913232704
19302320 297 18407757041268694512
19304671 126 17774733042903701544
19438510 23 18336261353374649032
20691028 202 18191870239652632540
21315764 268 18046344133333927165
21365058 113 17697613095151448462
21641784 216 16414916315185945171
21987483 16 18041000636147261083
22122407 14 18337681819218404457
23522609 53 17488757675396122361
23559900 14 17842278065095994703
23569914 152 9725968007065539921
2838139 119 18341047514642509110
3411729 13 18411138004952662437
34797466 226 18130511817339284119
376196 1 18410577322995836986
397830 11 18261685805275178827
4258327 124 18201998825293301981
474113 269 12035729851893349065
5109719 28 18338248145338152905
5219985 13 18340769363854187756
5265222 85 18123753320673738441
5364581 5 18408326588729238617
5372103 7 16127508537056774368
57091435 61 18410293596859703136
57724786 102 18262509399465848254
5951187 136 18342746217305404604
6036956 94 17327456329260555964
6176135 31 18261669393641534396
6201320 221 11386942172395956313
6201320 77 11958314444877963581
7288768 16 18042118937549762898
9849439 229 18338232782002504468

> <PUBCHEM_SHAPE_MULTIPOLES>
635.71
17.79
5.53
1.5
24.32
3.34
0.07
23.42
-2.02
-8.73
-0.19
-1.34
-0.65
-0.68

> <PUBCHEM_SHAPE_SELFOVERLAP>
1385.75

> <PUBCHEM_SHAPE_VOLUME>
346.7

> <PUBCHEM_COORDINATE_TYPE>
2
5
10

$$$$
