11884171
  -OEChem-12032416373D

 56 59  0     1  0  0  0  0  0999 V2000
    4.6220   -0.9245   -0.4232 S   0  0  0  0  0  0  0  0  0  0  0  0
    0.3578    0.4582   -1.0504 O   0  0  0  0  0  0  0  0  0  0  0  0
    1.3411    2.6885    0.8259 O   0  0  0  0  0  0  0  0  0  0  0  0
   -1.9601    1.6381   -0.0870 O   0  0  0  0  0  0  0  0  0  0  0  0
    4.8757   -0.2650   -1.6891 O   0  0  0  0  0  0  0  0  0  0  0  0
    4.7728   -2.3610   -0.2918 O   0  0  0  0  0  0  0  0  0  0  0  0
   -2.9629    0.3390    1.5057 O   0  0  0  0  0  0  0  0  0  0  0  0
   -9.2896   -2.5717    0.6999 O   0  0  0  0  0  0  0  0  0  0  0  0
    3.0804   -0.4958    0.1584 N   0  0  0  0  0  0  0  0  0  0  0  0
   -4.0717    0.9418   -0.4660 N   0  0  0  0  0  0  0  0  0  0  0  0
    1.5187    1.2570    0.8588 C   0  0  1  0  0  0  0  0  0  0  0  0
    0.2230    0.6415    0.3686 C   0  0  1  0  0  0  0  0  0  0  0  0
    2.5343    0.8410   -0.1762 C   0  0  2  0  0  0  0  0  0  0  0  0
   -0.7932    1.7075    0.7009 C   0  0  1  0  0  0  0  0  0  0  0  0
    1.7067    0.7538   -1.4438 C   0  0  0  0  0  0  0  0  0  0  0  0
   -0.0136    2.9789    0.4523 C   0  0  0  0  0  0  0  0  0  0  0  0
    5.6601   -0.1672    0.8059 C   0  0  0  0  0  0  0  0  0  0  0  0
   -3.0143    0.9084    0.4223 C   0  0  0  0  0  0  0  0  0  0  0  0
    7.0838   -0.4530    0.4395 C   0  0  0  0  0  0  0  0  0  0  0  0
    7.7820    0.4284   -0.3860 C   0  0  0  0  0  0  0  0  0  0  0  0
    7.7115   -1.6008    0.9232 C   0  0  0  0  0  0  0  0  0  0  0  0
   -5.3383    0.3282   -0.3348 C   0  0  0  0  0  0  0  0  0  0  0  0
    9.1079    0.1619   -0.7277 C   0  0  0  0  0  0  0  0  0  0  0  0
    9.0374   -1.8672    0.5817 C   0  0  0  0  0  0  0  0  0  0  0  0
    9.7355   -0.9858   -0.2439 C   0  0  0  0  0  0  0  0  0  0  0  0
   -6.2909    0.4722   -1.3437 C   0  0  0  0  0  0  0  0  0  0  0  0
   -5.6361   -0.4204    0.8039 C   0  0  0  0  0  0  0  0  0  0  0  0
   -7.5410   -0.1323   -1.2138 C   0  0  0  0  0  0  0  0  0  0  0  0
   -6.8865   -1.0249    0.9337 C   0  0  0  0  0  0  0  0  0  0  0  0
   -7.8390   -0.8809   -0.0751 C   0  0  0  0  0  0  0  0  0  0  0  0
   -9.1423   -1.5115    0.0596 C   0  0  0  0  0  0  0  0  0  0  0  0
  -10.3713   -0.8823   -0.5879 C   0  0  0  0  0  0  0  0  0  0  0  0
    1.7697    0.9791    1.8874 H   0  0  0  0  0  0  0  0  0  0  0  0
   -0.0032   -0.3339    0.8091 H   0  0  0  0  0  0  0  0  0  0  0  0
    3.3480    1.5656   -0.2796 H   0  0  0  0  0  0  0  0  0  0  0  0
   -1.0226    1.6710    1.7749 H   0  0  0  0  0  0  0  0  0  0  0  0
    2.0473   -0.0081   -2.1510 H   0  0  0  0  0  0  0  0  0  0  0  0
    1.6866    1.7184   -1.9625 H   0  0  0  0  0  0  0  0  0  0  0  0
   -0.0337    3.2804   -0.6010 H   0  0  0  0  0  0  0  0  0  0  0  0
   -0.3864    3.8191    1.0458 H   0  0  0  0  0  0  0  0  0  0  0  0
    2.7248   -0.9473    1.0099 H   0  0  0  0  0  0  0  0  0  0  0  0
    5.4055   -0.5866    1.7842 H   0  0  0  0  0  0  0  0  0  0  0  0
    5.4640    0.9090    0.8208 H   0  0  0  0  0  0  0  0  0  0  0  0
   -3.9240    1.4721   -1.3212 H   0  0  0  0  0  0  0  0  0  0  0  0
    7.3049    1.3265   -0.7692 H   0  0  0  0  0  0  0  0  0  0  0  0
    7.1793   -2.2952    1.5679 H   0  0  0  0  0  0  0  0  0  0  0  0
    9.6515    0.8481   -1.3704 H   0  0  0  0  0  0  0  0  0  0  0  0
    9.5263   -2.7608    0.9585 H   0  0  0  0  0  0  0  0  0  0  0  0
   10.7679   -1.1932   -0.5099 H   0  0  0  0  0  0  0  0  0  0  0  0
   -6.0703    1.0507   -2.2372 H   0  0  0  0  0  0  0  0  0  0  0  0
   -4.9503   -0.5746    1.6254 H   0  0  0  0  0  0  0  0  0  0  0  0
   -8.2592   -0.0143   -2.0205 H   0  0  0  0  0  0  0  0  0  0  0  0
   -7.1032   -1.6014    1.8295 H   0  0  0  0  0  0  0  0  0  0  0  0
  -11.2561   -1.1383    0.0027 H   0  0  0  0  0  0  0  0  0  0  0  0
  -10.2888    0.2078   -0.6000 H   0  0  0  0  0  0  0  0  0  0  0  0
  -10.4863   -1.2665   -1.6042 H   0  0  0  0  0  0  0  0  0  0  0  0
  1  5  2  0  0  0  0
  1  6  2  0  0  0  0
  1  9  1  0  0  0  0
  1 17  1  0  0  0  0
  2 12  1  0  0  0  0
  2 15  1  0  0  0  0
  3 11  1  0  0  0  0
  3 16  1  0  0  0  0
  4 14  1  0  0  0  0
  4 18  1  0  0  0  0
  7 18  2  0  0  0  0
  8 31  2  0  0  0  0
  9 13  1  0  0  0  0
  9 41  1  0  0  0  0
 10 18  1  0  0  0  0
 10 22  1  0  0  0  0
 10 44  1  0  0  0  0
 11 12  1  0  0  0  0
 11 13  1  0  0  0  0
 11 33  1  0  0  0  0
 12 14  1  0  0  0  0
 12 34  1  0  0  0  0
 13 15  1  0  0  0  0
 13 35  1  0  0  0  0
 14 16  1  0  0  0  0
 14 36  1  0  0  0  0
 15 37  1  0  0  0  0
 15 38  1  0  0  0  0
 16 39  1  0  0  0  0
 16 40  1  0  0  0  0
 17 19  1  0  0  0  0
 17 42  1  0  0  0  0
 17 43  1  0  0  0  0
 19 20  2  0  0  0  0
 19 21  1  0  0  0  0
 20 23  1  0  0  0  0
 20 45  1  0  0  0  0
 21 24  2  0  0  0  0
 21 46  1  0  0  0  0
 22 26  2  0  0  0  0
 22 27  1  0  0  0  0
 23 25  2  0  0  0  0
 23 47  1  0  0  0  0
 24 25  1  0  0  0  0
 24 48  1  0  0  0  0
 25 49  1  0  0  0  0
 26 28  1  0  0  0  0
 26 50  1  0  0  0  0
 27 29  2  0  0  0  0
 27 51  1  0  0  0  0
 28 30  2  0  0  0  0
 28 52  1  0  0  0  0
 29 30  1  0  0  0  0
 29 53  1  0  0  0  0
 30 31  1  0  0  0  0
 31 32  1  0  0  0  0
 32 54  1  0  0  0  0
 32 55  1  0  0  0  0
 32 56  1  0  0  0  0
M  END
> <PUBCHEM_COMPOUND_CID>
11884171

> <PUBCHEM_CONFORMER_RMSD>
1

> <PUBCHEM_CONFORMER_DIVERSEORDER>
1
84
115
140
123
26
95
129
112
36
31
103
130
127
90
32
64
24
143
102
106
81
104
119
8
75
55
92
48
57
73
134
149
7
146
44
139
133
145
39
126
43
94
105
21
109
117
65
6
98
69
66
141
70
101
46
88
116
80
25
121
5
91
14
56
42
89
128
41
52
97
9
3
124
68
142
34
61
19
35
99
114
30
136
54
78
137
38
23
83
71
111
63
150
15
16
29
60
122
148
79
76
18
47
74
59
53
144
49
20
108
131
22
33
86
93
118
113
13
82
110
125
12
72
100
2
27
147
51
107
67
17
96
37
135
28
151
40
62
138
50
10
132
120
77
11
87
58
4
45
85

> <PUBCHEM_MMFF94_PARTIAL_CHARGES>
43
1 1.33
10 -0.55
11 0.28
12 0.28
13 0.36
14 0.28
15 0.28
16 0.28
17 0.25
18 0.78
19 -0.14
2 -0.56
20 -0.15
21 -0.15
22 0.12
23 -0.15
24 -0.15
25 -0.15
26 -0.15
27 -0.15
28 -0.15
29 -0.15
3 -0.56
30 0.09
31 0.42
32 0.06
4 -0.43
41 0.42
44 0.37
45 0.15
46 0.15
47 0.15
48 0.15
49 0.15
5 -0.65
50 0.15
51 0.15
52 0.15
53 0.15
6 -0.65
7 -0.57
8 -0.57
9 -0.91

> <PUBCHEM_EFFECTIVE_ROTOR_COUNT>
10.2

> <PUBCHEM_PHARMACOPHORE_FEATURES>
12
1 10 donor
1 2 acceptor
1 3 acceptor
1 5 acceptor
1 6 acceptor
1 7 acceptor
1 8 acceptor
1 9 donor
5 2 11 12 13 15 rings
5 3 11 12 14 16 rings
6 19 20 21 23 24 25 rings
6 22 26 27 28 29 30 rings

> <PUBCHEM_HEAVY_ATOM_COUNT>
32

> <PUBCHEM_ATOM_DEF_STEREO_COUNT>
4

> <PUBCHEM_ATOM_UDEF_STEREO_COUNT>
0

> <PUBCHEM_BOND_DEF_STEREO_COUNT>
0

> <PUBCHEM_BOND_UDEF_STEREO_COUNT>
0

> <PUBCHEM_ISOTOPIC_ATOM_COUNT>
0

> <PUBCHEM_COMPONENT_COUNT>
1

> <PUBCHEM_CACTVS_TAUTO_COUNT>
9

> <PUBCHEM_CONFORMER_ID>
00B5568B00000001

> <PUBCHEM_MMFF94_ENERGY>
87.0229

> <PUBCHEM_FEATURE_SELFOVERLAP>
61.629

> <PUBCHEM_SHAPE_FINGERPRINT>
10 15 11672064142879965293
10076449 9 18411138034648434573
10162869 55 17967534572092904060
10533779 47 14908190716456623430
10625338 86 13183026190060665355
106641 1 17060337427123259392
10670039 82 16515396353753720861
10883706 17 17895764009992141139
11135609 99 18341894147138436455
11146851 88 18334016098748679342
11211813 128 17847065454734128518
11297750 10 18341601625106031521
11607047 141 11095895835675583388
11828042 206 17894625959770680405
12082328 90 18187077313267566253
12522641 33 13912321266538661160
12539745 222 17988927743680357353
13383668 1 17313658249687066082
14150022 121 16200158646775034961
14150023 24 9799691493588885556
14344974 52 14057009347264025869
14428016 86 10665223744444046997
15065858 18 18334851723264064893
15183329 4 16153425030412662001
15247644 1 18202283610994622415
15350500 55 9583529707307953419
15461852 350 18113617867552695005
15510794 2 18407757045626230981
155225 1 8214147361336212663
15690457 1 18334857208491183362
15706992 2 12319734799873479362
15890870 6 18259702303004429347
15979999 66 17967816058979701756
16728433 110 18271802446164522328
1754911 235 14634867561645702943
17852330 162 17314524810223740444
1818759 1 18343865519504247871
18335252 114 12468638326686512718
18335252 98 18060421288173588238
2026 5 18260827051406297531
20505436 4 9583518689973975885
20721686 124 12612748000420546296
20771845 65 18342739667655338657
21267235 1 18343863320465428072
21585482 111 9150912567961984227
21792961 116 17530969077584451017
232437 2 18408885135333690543
23389318 12 18334582348022636300
23524908 199 13407065973823755818
23569917 315 18198909099052509182
23576562 1 14996863124410588303
23729398 52 18198059373051605048
249057 3 15719400542210249968
335507 130 17561082509749879565
3383291 50 18343586252705788395
3633792 109 16515688815161886936
3711267 37 9295005816479702807
4461854 278 17275386525286023791
4516262 110 11169903992166247121
4760202 170 14490487408906690614
54039377 194 18411980273951649757
5719381 82 18334295379682715859
57828716 8 17894904115391461010
59682541 35 16630525133143466870
6126387 218 17489868207889016777
636775 8 18408324389072856591
9663363 56 17989203738494516573
9689198 14 11527941266522544894
9953998 17 14620790509943247029
9962374 69 17917422185919823165

> <PUBCHEM_SHAPE_MULTIPOLES>
611.35
37.29
2.17
1.19
12.37
0.46
0.17
-27.74
2.74
0.22
-0.57
0.25
0.07
0.15

> <PUBCHEM_SHAPE_SELFOVERLAP>
1301.126

> <PUBCHEM_SHAPE_VOLUME>
340.9

> <PUBCHEM_COORDINATE_TYPE>
2
5
10

$$$$
