75536835
  -OEChem-12032416323D

 52 53  0     1  0  0  0  0  0999 V2000
    0.7196    0.1649   -1.2665 O   0  0  0  0  0  0  0  0  0  0  0  0
   -0.1785   -1.7955    1.6068 O   0  0  0  0  0  0  0  0  0  0  0  0
    4.2819   -0.4507    1.3846 O   0  0  0  0  0  0  0  0  0  0  0  0
   -2.5609   -1.0867   -0.3162 N   0  0  0  0  0  0  0  0  0  0  0  0
   -6.3433    0.6956    0.4458 N   0  0  0  0  0  0  0  0  0  0  0  0
    3.4263   -0.6679   -0.7642 N   0  0  0  0  0  0  0  0  0  0  0  0
    5.3540    0.5513   -0.4127 N   0  0  0  0  0  0  0  0  0  0  0  0
   -1.2660   -0.4555   -0.1201 C   0  0  1  0  0  0  0  0  0  0  0  0
   -3.6294   -0.0902   -0.3166 C   0  0  0  0  0  0  0  0  0  0  0  0
   -0.1611   -1.4314    0.2401 C   0  0  1  0  0  0  0  0  0  0  0  0
    1.0761   -0.6177   -0.1148 C   0  0  1  0  0  0  0  0  0  0  0  0
   -3.9954    0.2948    1.1192 C   0  0  0  0  0  0  0  0  0  0  0  0
   -4.8681   -0.6150   -1.0484 C   0  0  0  0  0  0  0  0  0  0  0  0
   -0.7134    0.1686   -1.3910 C   0  0  0  0  0  0  0  0  0  0  0  0
   -5.1805    1.2637    1.1423 C   0  0  0  0  0  0  0  0  0  0  0  0
   -6.0249    0.3834   -0.9545 C   0  0  0  0  0  0  0  0  0  0  0  0
    2.2880   -1.4755   -0.4322 C   0  0  0  0  0  0  0  0  0  0  0  0
   -7.4817    1.6109    0.5199 C   0  0  0  0  0  0  0  0  0  0  0  0
    4.3497   -0.2098    0.1800 C   0  0  0  0  0  0  0  0  0  0  0  0
    6.4341    1.1442    0.3403 C   0  0  0  0  0  0  0  0  0  0  0  0
    7.5975    0.1684    0.4653 C   0  0  0  0  0  0  0  0  0  0  0  0
    6.8761    2.4501   -0.3070 C   0  0  0  0  0  0  0  0  0  0  0  0
   -1.3054    0.2995    0.6749 H   0  0  0  0  0  0  0  0  0  0  0  0
   -3.3092    0.8126   -0.8539 H   0  0  0  0  0  0  0  0  0  0  0  0
   -0.2241   -2.3416   -0.3692 H   0  0  0  0  0  0  0  0  0  0  0  0
    1.3246    0.0837    0.6926 H   0  0  0  0  0  0  0  0  0  0  0  0
   -2.7302   -1.7775    0.4141 H   0  0  0  0  0  0  0  0  0  0  0  0
   -3.1551    0.7705    1.6363 H   0  0  0  0  0  0  0  0  0  0  0  0
   -4.2563   -0.6010    1.6993 H   0  0  0  0  0  0  0  0  0  0  0  0
   -5.1837   -1.5756   -0.6191 H   0  0  0  0  0  0  0  0  0  0  0  0
   -4.6324   -0.8009   -2.1035 H   0  0  0  0  0  0  0  0  0  0  0  0
   -0.9609   -0.4167   -2.2842 H   0  0  0  0  0  0  0  0  0  0  0  0
   -1.0582    1.1954   -1.5455 H   0  0  0  0  0  0  0  0  0  0  0  0
   -5.4378    1.4625    2.1899 H   0  0  0  0  0  0  0  0  0  0  0  0
   -4.8834    2.2204    0.6925 H   0  0  0  0  0  0  0  0  0  0  0  0
   -5.7709    1.2953   -1.5109 H   0  0  0  0  0  0  0  0  0  0  0  0
   -6.8999   -0.0626   -1.4429 H   0  0  0  0  0  0  0  0  0  0  0  0
    2.5377   -2.1208    0.4166 H   0  0  0  0  0  0  0  0  0  0  0  0
    2.0949   -2.1077   -1.3058 H   0  0  0  0  0  0  0  0  0  0  0  0
   -0.1254   -0.9845    2.1402 H   0  0  0  0  0  0  0  0  0  0  0  0
   -8.3639    1.1671    0.0451 H   0  0  0  0  0  0  0  0  0  0  0  0
   -7.2740    2.5708    0.0333 H   0  0  0  0  0  0  0  0  0  0  0  0
   -7.7524    1.8047    1.5638 H   0  0  0  0  0  0  0  0  0  0  0  0
    3.5599   -0.4034   -1.7354 H   0  0  0  0  0  0  0  0  0  0  0  0
    5.3655    0.6305   -1.4251 H   0  0  0  0  0  0  0  0  0  0  0  0
    6.0644    1.3674    1.3484 H   0  0  0  0  0  0  0  0  0  0  0  0
    7.9933   -0.1051   -0.5192 H   0  0  0  0  0  0  0  0  0  0  0  0
    7.2821   -0.7563    0.9609 H   0  0  0  0  0  0  0  0  0  0  0  0
    8.4127    0.6041    1.0521 H   0  0  0  0  0  0  0  0  0  0  0  0
    7.2505    2.2845   -1.3234 H   0  0  0  0  0  0  0  0  0  0  0  0
    6.0382    3.1526   -0.3752 H   0  0  0  0  0  0  0  0  0  0  0  0
    7.6711    2.9269    0.2757 H   0  0  0  0  0  0  0  0  0  0  0  0
  1 11  1  0  0  0  0
  1 14  1  0  0  0  0
  2 10  1  0  0  0  0
  2 40  1  0  0  0  0
  3 19  2  0  0  0  0
  4  8  1  0  0  0  0
  4  9  1  0  0  0  0
  4 27  1  0  0  0  0
  5 15  1  0  0  0  0
  5 16  1  0  0  0  0
  5 18  1  0  0  0  0
  6 17  1  0  0  0  0
  6 19  1  0  0  0  0
  6 44  1  0  0  0  0
  7 19  1  0  0  0  0
  7 20  1  0  0  0  0
  7 45  1  0  0  0  0
  8 10  1  0  0  0  0
  8 14  1  0  0  0  0
  8 23  1  0  0  0  0
  9 12  1  0  0  0  0
  9 13  1  0  0  0  0
  9 24  1  0  0  0  0
 10 11  1  0  0  0  0
 10 25  1  0  0  0  0
 11 17  1  0  0  0  0
 11 26  1  0  0  0  0
 12 15  1  0  0  0  0
 12 28  1  0  0  0  0
 12 29  1  0  0  0  0
 13 16  1  0  0  0  0
 13 30  1  0  0  0  0
 13 31  1  0  0  0  0
 14 32  1  0  0  0  0
 14 33  1  0  0  0  0
 15 34  1  0  0  0  0
 15 35  1  0  0  0  0
 16 36  1  0  0  0  0
 16 37  1  0  0  0  0
 17 38  1  0  0  0  0
 17 39  1  0  0  0  0
 18 41  1  0  0  0  0
 18 42  1  0  0  0  0
 18 43  1  0  0  0  0
 20 21  1  0  0  0  0
 20 22  1  0  0  0  0
 20 46  1  0  0  0  0
 21 47  1  0  0  0  0
 21 48  1  0  0  0  0
 21 49  1  0  0  0  0
 22 50  1  0  0  0  0
 22 51  1  0  0  0  0
 22 52  1  0  0  0  0
M  END
> <PUBCHEM_COMPOUND_CID>
75536835

> <PUBCHEM_CONFORMER_RMSD>
1

> <PUBCHEM_CONFORMER_DIVERSEORDER>
1
48
110
99
117
111
112
91
103
21
87
11
120
79
53
67
30
26
71
95
62
82
121
101
72
122
100
13
39
113
46
118
19
61
84
104
96
90
102
47
8
119
65
29
16
92
55
44
15
74
69
77
98
115
43
94
109
56
108
5
50
70
116
60
93
63
57
22
7
36
78
49
42
18
54
88
40
52
80
32
86
2
31
45
85
27
28
35
64
20
6
33
73
10
114
81
68
66
17
34
89
23
25
3
106
38
12
105
37
24
107
76
14
51
83
75
58
97
59
41
4
9

> <PUBCHEM_MMFF94_PARTIAL_CHARGES>
22
1 -0.56
10 0.28
11 0.28
14 0.28
15 0.27
16 0.27
17 0.3
18 0.27
19 0.69
2 -0.68
20 0.3
27 0.36
3 -0.57
4 -0.9
40 0.4
44 0.37
45 0.37
5 -0.81
6 -0.73
7 -0.73
8 0.27
9 0.27

> <PUBCHEM_EFFECTIVE_ROTOR_COUNT>
9.2

> <PUBCHEM_PHARMACOPHORE_FEATURES>
12
1 1 acceptor
1 2 acceptor
1 2 donor
1 3 acceptor
1 4 cation
1 4 donor
1 5 cation
1 6 donor
1 7 donor
3 20 21 22 hydrophobe
5 1 8 10 11 14 rings
6 5 9 12 13 15 16 rings

> <PUBCHEM_HEAVY_ATOM_COUNT>
22

> <PUBCHEM_ATOM_DEF_STEREO_COUNT>
3

> <PUBCHEM_ATOM_UDEF_STEREO_COUNT>
0

> <PUBCHEM_BOND_DEF_STEREO_COUNT>
0

> <PUBCHEM_BOND_UDEF_STEREO_COUNT>
0

> <PUBCHEM_ISOTOPIC_ATOM_COUNT>
0

> <PUBCHEM_COMPONENT_COUNT>
1

> <PUBCHEM_CACTVS_TAUTO_COUNT>
3

> <PUBCHEM_CONFORMER_ID>
048099C300000001

> <PUBCHEM_MMFF94_ENERGY>
24.9731

> <PUBCHEM_FEATURE_SELFOVERLAP>
60.945

> <PUBCHEM_SHAPE_FINGERPRINT>
10 15 16443351991639405084
10087517 78 18272089366558552729
106641 1 18335145302481826843
10670039 82 14979685368413802178
10906281 52 18261688051036366942
11315181 36 18411416242246880991
11524674 6 15502377837497536937
117890 112 18341896298827127422
11991303 11 14333116520471316613
12035758 1 17022626389977225509
12236239 1 18341331103107204095
12596602 18 18259988175620599147
12616971 3 15647057109541039510
12670543 26 13470695827707923162
13288520 33 10737286849109729511
13533116 47 17822284636093006498
13540713 5 16735538518055408638
13631057 29 18265047106842835523
13668630 136 11239992352652766805
13685833 64 11025795397313134878
13862211 1 8574712407748851887
14123256 10 15554728871492647249
14251752 14 15123509190382365412
14251764 18 18114183076779999383
14849402 71 18336830908782867997
15048467 5 18273214192263959759
15183329 4 15339124528559101370
15348495 7 16226339216996775524
15706992 2 18340219556126606881
15716309 27 12973608841420282903
1768 124 11746926591133831944
17834072 8 14908179759340838338
17980427 23 18042124417933489902
20281389 69 18335701615687597156
20526848 3 18343305868149084952
20735858 18 16298387954753909243
21150785 3 14979954774458440348
21267235 1 10592036969471258111
21637258 2 11602821332388666091
21792961 116 15554453993702079471
22224240 67 17822010917394416683
23035841 295 10737287944141767141
23081809 10 18059565880289673159
23522609 53 8429471440205742366
23559900 14 16271911711327252779
23576562 1 14907312266669478361
2838139 119 17988923392013257600
300161 21 18343302539960867895
33532 11 8646773287442620564
4073 2 18341617031353662271
4325135 7 17917711288268146001
4340502 62 15574713586539313522
445580 37 17275111630045929993
465052 167 10953744400102348234
5104073 3 16733844127502287276
543368 44 18343303652700015825
5758199 1 18333452040830495051
59682541 35 17531252785211042753
59682541 52 16271661009865065052
59755656 215 13183026206860830076

> <PUBCHEM_SHAPE_MULTIPOLES>
415.22
21.67
1.65
1.22
10.01
0.51
0.11
14.48
1.54
0.88
0.15
-0.53
-0.11
-1.16

> <PUBCHEM_SHAPE_SELFOVERLAP>
825.517

> <PUBCHEM_SHAPE_VOLUME>
248.2

> <PUBCHEM_COORDINATE_TYPE>
2
5
10

$$$$
