56774867
  -OEChem-12032416393D

 45 47  0     1  0  0  0  0  0999 V2000
    3.7448    1.9884    0.0299 O   0  0  0  0  0  0  0  0  0  0  0  0
   -3.5737    0.5824    1.2793 O   0  0  0  0  0  0  0  0  0  0  0  0
    3.3141   -2.1416    0.7828 O   0  0  0  0  0  0  0  0  0  0  0  0
    7.0224    0.5178    0.4142 O   0  0  0  0  0  0  0  0  0  0  0  0
   -2.7276   -0.7907   -0.4404 N   0  0  0  0  0  0  0  0  0  0  0  0
    5.0981   -0.3850   -0.4550 N   0  0  0  0  0  0  0  0  0  0  0  0
   -5.0868   -0.3759   -0.2777 C   0  0  0  0  0  0  0  0  0  0  0  0
   -5.4402    0.7087   -1.3016 C   0  0  0  0  0  0  0  0  0  0  0  0
   -6.1512   -0.2933    0.8176 C   0  0  0  0  0  0  0  0  0  0  0  0
   -6.7530    1.3203   -0.8240 C   0  0  0  0  0  0  0  0  0  0  0  0
   -6.7386    1.1038    0.6784 C   0  0  0  0  0  0  0  0  0  0  0  0
   -3.7228   -0.1290    0.2911 C   0  0  0  0  0  0  0  0  0  0  0  0
    3.6701   -0.2858   -0.7147 C   0  0  1  0  0  0  0  0  0  0  0  0
    2.8899   -0.8137    0.4883 C   0  0  1  0  0  0  0  0  0  0  0  0
    3.2991    1.1556   -1.0378 C   0  0  0  0  0  0  0  0  0  0  0  0
    1.4014   -0.8073    0.2416 C   0  0  0  0  0  0  0  0  0  0  0  0
   -1.3510   -0.7959   -0.2128 C   0  0  0  0  0  0  0  0  0  0  0  0
    0.5582   -0.0837    1.0851 C   0  0  0  0  0  0  0  0  0  0  0  0
    0.8683   -1.5249   -0.8291 C   0  0  0  0  0  0  0  0  0  0  0  0
   -0.8180   -0.0780    0.8580 C   0  0  0  0  0  0  0  0  0  0  0  0
   -0.5079   -1.5193   -1.0563 C   0  0  0  0  0  0  0  0  0  0  0  0
    5.1556    2.0003    0.1161 C   0  0  0  0  0  0  0  0  0  0  0  0
    5.8490    0.6467    0.0670 C   0  0  0  0  0  0  0  0  0  0  0  0
   -5.1201   -1.3720   -0.7350 H   0  0  0  0  0  0  0  0  0  0  0  0
   -4.6658    1.4831   -1.3600 H   0  0  0  0  0  0  0  0  0  0  0  0
   -5.5522    0.2887   -2.3070 H   0  0  0  0  0  0  0  0  0  0  0  0
   -6.9363   -1.0327    0.6137 H   0  0  0  0  0  0  0  0  0  0  0  0
   -5.7819   -0.4852    1.8299 H   0  0  0  0  0  0  0  0  0  0  0  0
   -7.5986    0.7856   -1.2730 H   0  0  0  0  0  0  0  0  0  0  0  0
   -6.8404    2.3769   -1.0932 H   0  0  0  0  0  0  0  0  0  0  0  0
   -6.0925    1.8436    1.1648 H   0  0  0  0  0  0  0  0  0  0  0  0
   -7.7372    1.1790    1.1180 H   0  0  0  0  0  0  0  0  0  0  0  0
    3.4970   -0.9159   -1.5946 H   0  0  0  0  0  0  0  0  0  0  0  0
    3.1266   -0.2187    1.3793 H   0  0  0  0  0  0  0  0  0  0  0  0
   -3.0316   -1.3348   -1.2451 H   0  0  0  0  0  0  0  0  0  0  0  0
    3.7734    1.4851   -1.9713 H   0  0  0  0  0  0  0  0  0  0  0  0
    2.2226    1.2997   -1.1639 H   0  0  0  0  0  0  0  0  0  0  0  0
    5.5368   -1.2964   -0.5448 H   0  0  0  0  0  0  0  0  0  0  0  0
    0.9604    0.4804    1.9224 H   0  0  0  0  0  0  0  0  0  0  0  0
    1.5059   -2.1046   -1.4906 H   0  0  0  0  0  0  0  0  0  0  0  0
   -1.4064    0.5046    1.5529 H   0  0  0  0  0  0  0  0  0  0  0  0
   -0.9098   -2.0852   -1.8929 H   0  0  0  0  0  0  0  0  0  0  0  0
    5.4233    2.4826    1.0617 H   0  0  0  0  0  0  0  0  0  0  0  0
    5.5559    2.6143   -0.6989 H   0  0  0  0  0  0  0  0  0  0  0  0
    2.6865   -2.5285    1.4171 H   0  0  0  0  0  0  0  0  0  0  0  0
  1 15  1  0  0  0  0
  1 22  1  0  0  0  0
  2 12  2  0  0  0  0
  3 14  1  0  0  0  0
  3 45  1  0  0  0  0
  4 23  2  0  0  0  0
  5 12  1  0  0  0  0
  5 17  1  0  0  0  0
  5 35  1  0  0  0  0
  6 13  1  0  0  0  0
  6 23  1  0  0  0  0
  6 38  1  0  0  0  0
  7  8  1  0  0  0  0
  7  9  1  0  0  0  0
  7 12  1  0  0  0  0
  7 24  1  0  0  0  0
  8 10  1  0  0  0  0
  8 25  1  0  0  0  0
  8 26  1  0  0  0  0
  9 11  1  0  0  0  0
  9 27  1  0  0  0  0
  9 28  1  0  0  0  0
 10 11  1  0  0  0  0
 10 29  1  0  0  0  0
 10 30  1  0  0  0  0
 11 31  1  0  0  0  0
 11 32  1  0  0  0  0
 13 14  1  0  0  0  0
 13 15  1  0  0  0  0
 13 33  1  0  0  0  0
 14 16  1  0  0  0  0
 14 34  1  0  0  0  0
 15 36  1  0  0  0  0
 15 37  1  0  0  0  0
 16 18  2  0  0  0  0
 16 19  1  0  0  0  0
 17 20  2  0  0  0  0
 17 21  1  0  0  0  0
 18 20  1  0  0  0  0
 18 39  1  0  0  0  0
 19 21  2  0  0  0  0
 19 40  1  0  0  0  0
 20 41  1  0  0  0  0
 21 42  1  0  0  0  0
 22 23  1  0  0  0  0
 22 43  1  0  0  0  0
 22 44  1  0  0  0  0
M  END
> <PUBCHEM_COMPOUND_CID>
56774867

> <PUBCHEM_CONFORMER_RMSD>
0.8

> <PUBCHEM_CONFORMER_DIVERSEORDER>
1
32
14
34
11
40
53
45
22
7
4
52
25
42
27
30
38
21
18
29
13
39
49
48
46
47
8
3
33
16
44
50
54
17
35
41
9
12
24
51
20
23
37
15
28
26
10
5
6
43
36
2
19
31

> <PUBCHEM_MMFF94_PARTIAL_CHARGES>
26
1 -0.56
12 0.57
13 0.3
14 0.42
15 0.28
16 -0.14
17 0.12
18 -0.15
19 -0.15
2 -0.57
20 -0.15
21 -0.15
22 0.34
23 0.57
3 -0.68
35 0.37
38 0.37
39 0.15
4 -0.57
40 0.15
41 0.15
42 0.15
45 0.4
5 -0.55
6 -0.73
7 0.06

> <PUBCHEM_EFFECTIVE_ROTOR_COUNT>
7

> <PUBCHEM_PHARMACOPHORE_FEATURES>
10
1 1 acceptor
1 2 acceptor
1 3 acceptor
1 3 donor
1 4 acceptor
1 5 donor
1 6 donor
5 7 8 9 10 11 rings
6 1 6 13 15 22 23 rings
6 16 17 18 19 20 21 rings

> <PUBCHEM_HEAVY_ATOM_COUNT>
23

> <PUBCHEM_ATOM_DEF_STEREO_COUNT>
2

> <PUBCHEM_ATOM_UDEF_STEREO_COUNT>
0

> <PUBCHEM_BOND_DEF_STEREO_COUNT>
0

> <PUBCHEM_BOND_UDEF_STEREO_COUNT>
0

> <PUBCHEM_ISOTOPIC_ATOM_COUNT>
0

> <PUBCHEM_COMPONENT_COUNT>
1

> <PUBCHEM_CACTVS_TAUTO_COUNT>
9

> <PUBCHEM_CONFORMER_ID>
036250D300000001

> <PUBCHEM_MMFF94_ENERGY>
63.3806

> <PUBCHEM_FEATURE_SELFOVERLAP>
50.752

> <PUBCHEM_SHAPE_FINGERPRINT>
10354089 29 18186523211252553838
10554248 39 18057031416573688215
106641 1 13623536783422822388
10670039 82 17560808692821216232
10906281 52 17775017756501394787
11089746 13 18342173392768443132
11646440 116 17603871104341066365
12236239 1 18343018899856494174
12623949 98 12397119455155980088
12730499 353 18040721355054669970
13167372 99 18410856520996003793
13533116 47 17531519889680842650
13540713 5 16269977562425351483
13668630 136 10879993566584406597
13685833 64 10231757794525463932
13955234 65 18041554728897124482
14123256 10 17561083605425163769
14251764 18 13551479167435440366
14528608 73 17989485234281321465
14849402 71 15575298586606965455
14933364 13 18260550017841618421
15048467 5 18411981360240778311
15183329 4 17918278653416273129
15348495 7 16805896194091469721
15419008 145 18042109987118038472
18335252 114 18342450431128612596
20157964 124 18411983537720943958
20567600 247 10303813168503494333
20715895 44 18201721782084835964
21150785 3 15554444115393128353
21641784 216 18059309668711940065
22224240 67 16153426177142381275
22956985 138 12758803766073191672
23081809 10 17274822411876213035
23559900 14 12247386908774819351
23569914 2 17392989194030147813
25122255 55 10663819723867129437
2838139 119 18409160034910884181
2916195 48 18040152920844287897
29717793 49 17560807606410345604
300161 21 18407757036656923435
3004659 81 17418103066347554926
3472631 163 18059295478229060548
351380 3 10665225968720193589
3545911 37 18113901567427836290
4073 2 17676776464793598354
4340502 62 17676207974469469618
5104073 3 14996832192668182077
5385378 56 15864345792935537977
542803 24 18411136910200296955
5718773 13 11671244976853702460
59755656 520 17530960319323630386

> <PUBCHEM_SHAPE_MULTIPOLES>
439.89
18.58
1.68
1.12
8.99
0.17
0.05
9.13
-0.01
-1.46
0.14
0.76
0
0.02

> <PUBCHEM_SHAPE_SELFOVERLAP>
933.096

> <PUBCHEM_SHAPE_VOLUME>
243.6

> <PUBCHEM_COORDINATE_TYPE>
2
5
10

$$$$
