75536963
  -OEChem-12032416343D

 30 32  0     1  0  0  0  0  0999 V2000
   -2.8451   -1.6855    0.0206 O   0  0  0  0  0  0  0  0  0  0  0  0
    4.0830   -0.8789    0.3834 O   0  0  0  0  0  0  0  0  0  0  0  0
   -0.8676   -0.5715   -0.4942 N   0  0  0  0  0  0  0  0  0  0  0  0
    1.7976   -0.3305    0.2612 N   0  0  0  0  0  0  0  0  0  0  0  0
    3.3171    1.2847   -0.1031 N   0  0  0  0  0  0  0  0  0  0  0  0
   -3.0264    0.6166   -0.3421 C   0  0  0  0  0  0  0  0  0  0  0  0
    1.0154    0.8841    0.1139 C   0  0  2  0  0  0  0  0  0  0  0  0
   -3.0972    1.4924    0.8633 C   0  0  0  0  0  0  0  0  0  0  0  0
   -4.3024    0.7159    0.4240 C   0  0  0  0  0  0  0  0  0  0  0  0
   -0.1398    0.6584   -0.8578 C   0  0  0  0  0  0  0  0  0  0  0  0
   -2.2416   -0.6522   -0.2554 C   0  0  0  0  0  0  0  0  0  0  0  0
   -0.0378   -1.7830   -0.4222 C   0  0  0  0  0  0  0  0  0  0  0  0
    1.1311   -1.5893    0.5410 C   0  0  0  0  0  0  0  0  0  0  0  0
    2.0404    1.9192   -0.3396 C   0  0  0  0  0  0  0  0  0  0  0  0
    3.1731   -0.0804    0.2069 C   0  0  0  0  0  0  0  0  0  0  0  0
   -3.0261    1.0935   -1.3175 H   0  0  0  0  0  0  0  0  0  0  0  0
    0.6311    1.1349    1.1109 H   0  0  0  0  0  0  0  0  0  0  0  0
   -3.1027    2.5644    0.7088 H   0  0  0  0  0  0  0  0  0  0  0  0
   -2.5953    1.1745    1.7691 H   0  0  0  0  0  0  0  0  0  0  0  0
   -4.6206   -0.1048    1.0549 H   0  0  0  0  0  0  0  0  0  0  0  0
   -5.1196    1.2682   -0.0248 H   0  0  0  0  0  0  0  0  0  0  0  0
   -0.7929    1.5333   -0.8739 H   0  0  0  0  0  0  0  0  0  0  0  0
    0.2300    0.5066   -1.8794 H   0  0  0  0  0  0  0  0  0  0  0  0
    0.3343   -1.9710   -1.4366 H   0  0  0  0  0  0  0  0  0  0  0  0
   -0.6330   -2.6505   -0.1213 H   0  0  0  0  0  0  0  0  0  0  0  0
    0.7692   -1.5356    1.5740 H   0  0  0  0  0  0  0  0  0  0  0  0
    1.8477   -2.4133    0.4714 H   0  0  0  0  0  0  0  0  0  0  0  0
    1.9743    2.1512   -1.4069 H   0  0  0  0  0  0  0  0  0  0  0  0
    1.9827    2.8469    0.2361 H   0  0  0  0  0  0  0  0  0  0  0  0
    4.2145    1.7439   -0.2220 H   0  0  0  0  0  0  0  0  0  0  0  0
  1 11  2  0  0  0  0
  2 15  2  0  0  0  0
  3 10  1  0  0  0  0
  3 11  1  0  0  0  0
  3 12  1  0  0  0  0
  4  7  1  0  0  0  0
  4 13  1  0  0  0  0
  4 15  1  0  0  0  0
  5 14  1  0  0  0  0
  5 15  1  0  0  0  0
  5 30  1  0  0  0  0
  6  8  1  0  0  0  0
  6  9  1  0  0  0  0
  6 11  1  0  0  0  0
  6 16  1  0  0  0  0
  7 10  1  0  0  0  0
  7 14  1  0  0  0  0
  7 17  1  0  0  0  0
  8  9  1  0  0  0  0
  8 18  1  0  0  0  0
  8 19  1  0  0  0  0
  9 20  1  0  0  0  0
  9 21  1  0  0  0  0
 10 22  1  0  0  0  0
 10 23  1  0  0  0  0
 12 13  1  0  0  0  0
 12 24  1  0  0  0  0
 12 25  1  0  0  0  0
 13 26  1  0  0  0  0
 13 27  1  0  0  0  0
 14 28  1  0  0  0  0
 14 29  1  0  0  0  0
M  END
> <PUBCHEM_COMPOUND_CID>
75536963

> <PUBCHEM_CONFORMER_RMSD>
0.6

> <PUBCHEM_CONFORMER_DIVERSEORDER>
1
9
8
7
6
2
10
3
5
4

> <PUBCHEM_MMFF94_PARTIAL_CHARGES>
21
1 -0.57
10 0.3
11 0.63
12 0.3
13 0.3
14 0.3
15 0.69
16 0.1
18 0.1
19 0.1
2 -0.57
20 0.1
21 0.1
3 -0.66
30 0.37
4 -0.66
5 -0.73
6 -0.1
7 0.3
8 -0.2
9 -0.2

> <PUBCHEM_EFFECTIVE_ROTOR_COUNT>
3.8

> <PUBCHEM_PHARMACOPHORE_FEATURES>
5
1 1 acceptor
1 2 acceptor
1 5 donor
5 4 5 7 14 15 rings
6 3 4 7 10 12 13 rings

> <PUBCHEM_HEAVY_ATOM_COUNT>
15

> <PUBCHEM_ATOM_DEF_STEREO_COUNT>
1

> <PUBCHEM_ATOM_UDEF_STEREO_COUNT>
0

> <PUBCHEM_BOND_DEF_STEREO_COUNT>
0

> <PUBCHEM_BOND_UDEF_STEREO_COUNT>
0

> <PUBCHEM_ISOTOPIC_ATOM_COUNT>
0

> <PUBCHEM_COMPONENT_COUNT>
1

> <PUBCHEM_CACTVS_TAUTO_COUNT>
2

> <PUBCHEM_CONFORMER_ID>
04809A4300000001

> <PUBCHEM_MMFF94_ENERGY>
32.6068

> <PUBCHEM_FEATURE_SELFOVERLAP>
25.47

> <PUBCHEM_SHAPE_FINGERPRINT>
10465860 228 18199477575361639483
10980938 120 18337390443977923091
11132069 177 18336255786733088184
11471102 20 18335695031613372348
12162725 195 18342455958814455469
12251169 10 18408323259464646811
12346645 44 18411418431577577089
12382932 28 18409730642917087681
12491281 212 18409737291210009385
12932764 1 17313371327509453958
13221675 6 18335699407974030690
13380535 76 18341613694443082855
13675066 3 18060414725073195482
14144814 61 18409726291756631101
14325111 11 18338233868212349636
14897335 6 18341892970475379927
15196674 1 18410292535949857984
15309172 13 18334855004772027287
15375462 189 17895467030003552482
15442244 35 18410571803661486154
15536298 74 18341611542585060324
15775835 57 18412268354356206185
16945 1 18189322503004996766
17844478 74 17313379002705774004
18186145 218 18409446998971486188
18511873 20 18342736316978323820
19422 9 18335701688781077998
200 152 18270668883771928847
201361 129 18409732828696751891
20233049 118 17775560905969604352
20510252 161 18127134288916106155
20711983 171 18201158840209555485
20871999 31 9151178619504399915
21501502 16 18337109080696813966
21524375 3 18343581837341569607
22094290 62 18410854382297287224
231179 274 18114738235752455525
23402539 116 17988633096054227909
23463225 33 18407757032256090876
23557571 272 14836107863494402929
23559900 14 17988924496890289488
5104073 3 18409727399894987728
53655031 270 18341331085141163032
6430166 295 18341330007020034024
7364860 26 18128542565547918143

> <PUBCHEM_SHAPE_MULTIPOLES>
282.01
6.99
1.92
0.79
1.32
0.16
0
-1.53
1.28
-0.19
0.01
0.18
-0.07
-0.61

> <PUBCHEM_SHAPE_SELFOVERLAP>
590.13

> <PUBCHEM_SHAPE_VOLUME>
160.4

> <PUBCHEM_COORDINATE_TYPE>
2
5
10

$$$$
