28962329
  -OEChem-12032416283D

 55 57  0     1  0  0  0  0  0999 V2000
    6.5456   -0.2367    1.9035 Cl  0  0  0  0  0  0  0  0  0  0  0  0
   -3.8770   -1.5120   -0.8494 O   0  0  0  0  0  0  0  0  0  0  0  0
   -4.7513    1.5343    0.8502 O   0  0  0  0  0  0  0  0  0  0  0  0
   -6.5285   -2.1206   -0.2080 O   0  0  0  0  0  0  0  0  0  0  0  0
    0.6285   -2.2732   -1.2051 O   0  0  0  0  0  0  0  0  0  0  0  0
   -1.7052    0.9428    0.7468 N   0  0  1  0  0  0  0  0  0  0  0  0
   -0.5637   -1.8776    0.7370 N   0  0  0  0  0  0  0  0  0  0  0  0
    1.7043   -1.4736    0.7221 N   0  0  0  0  0  0  0  0  0  0  0  0
   -2.8451    0.0526    0.5948 C   0  0  2  0  0  0  0  0  0  0  0  0
   -2.5836   -1.0889   -0.3798 C   0  0  1  0  0  0  0  0  0  0  0  0
   -4.0368    0.7245   -0.0604 C   0  0  1  0  0  0  0  0  0  0  0  0
   -4.8373   -0.4729   -0.5715 C   0  0  2  0  0  0  0  0  0  0  0  0
   -1.8490   -2.2678    0.2325 C   0  0  0  0  0  0  0  0  0  0  0  0
   -5.8643   -1.0309    0.4065 C   0  0  0  0  0  0  0  0  0  0  0  0
   -1.5136    1.7498   -0.4607 C   0  0  0  0  0  0  0  0  0  0  0  0
   -1.8785    1.8117    1.9133 C   0  0  0  0  0  0  0  0  0  0  0  0
   -0.1178    2.3075   -0.5467 C   0  0  0  0  0  0  0  0  0  0  0  0
    0.6106   -1.9078   -0.0321 C   0  0  0  0  0  0  0  0  0  0  0  0
    0.1721    3.5508    0.0153 C   0  0  0  0  0  0  0  0  0  0  0  0
    0.8854    1.5811   -1.1882 C   0  0  0  0  0  0  0  0  0  0  0  0
    1.4653    4.0678   -0.0643 C   0  0  0  0  0  0  0  0  0  0  0  0
    2.1784    2.0980   -1.2678 C   0  0  0  0  0  0  0  0  0  0  0  0
    2.4685    3.3413   -0.7058 C   0  0  0  0  0  0  0  0  0  0  0  0
    3.0526   -1.3601    0.3100 C   0  0  0  0  0  0  0  0  0  0  0  0
    4.0209   -0.9068    1.2058 C   0  0  0  0  0  0  0  0  0  0  0  0
    3.4138   -1.7034   -0.9928 C   0  0  0  0  0  0  0  0  0  0  0  0
    5.3505   -0.7966    0.7988 C   0  0  0  0  0  0  0  0  0  0  0  0
    4.7434   -1.5933   -1.3998 C   0  0  0  0  0  0  0  0  0  0  0  0
    5.7118   -1.1398   -0.5041 C   0  0  0  0  0  0  0  0  0  0  0  0
   -3.1367   -0.3649    1.5688 H   0  0  0  0  0  0  0  0  0  0  0  0
   -2.0384   -0.7750   -1.2755 H   0  0  0  0  0  0  0  0  0  0  0  0
   -3.8070    1.3278   -0.9425 H   0  0  0  0  0  0  0  0  0  0  0  0
   -5.3377   -0.2322   -1.5168 H   0  0  0  0  0  0  0  0  0  0  0  0
   -1.7317   -3.0661   -0.5093 H   0  0  0  0  0  0  0  0  0  0  0  0
   -2.4224   -2.6944    1.0632 H   0  0  0  0  0  0  0  0  0  0  0  0
   -6.6131   -0.2789    0.6716 H   0  0  0  0  0  0  0  0  0  0  0  0
   -5.3850   -1.4041    1.3172 H   0  0  0  0  0  0  0  0  0  0  0  0
   -2.2128    2.5970   -0.5121 H   0  0  0  0  0  0  0  0  0  0  0  0
   -1.6626    1.1927   -1.3920 H   0  0  0  0  0  0  0  0  0  0  0  0
   -0.9361    2.3007    2.1790 H   0  0  0  0  0  0  0  0  0  0  0  0
   -2.1507    1.2248    2.7987 H   0  0  0  0  0  0  0  0  0  0  0  0
   -2.6393    2.5867    1.7740 H   0  0  0  0  0  0  0  0  0  0  0  0
   -5.5364    1.8729    0.3872 H   0  0  0  0  0  0  0  0  0  0  0  0
   -0.5049   -1.5511    1.6966 H   0  0  0  0  0  0  0  0  0  0  0  0
   -7.1762   -2.4602    0.4326 H   0  0  0  0  0  0  0  0  0  0  0  0
   -0.5999    4.1344    0.5098 H   0  0  0  0  0  0  0  0  0  0  0  0
    0.6711    0.6162   -1.6383 H   0  0  0  0  0  0  0  0  0  0  0  0
    1.5163   -1.2041    1.6843 H   0  0  0  0  0  0  0  0  0  0  0  0
    1.6906    5.0368    0.3712 H   0  0  0  0  0  0  0  0  0  0  0  0
    2.9592    1.5345   -1.7702 H   0  0  0  0  0  0  0  0  0  0  0  0
    3.4752    3.7439   -0.7687 H   0  0  0  0  0  0  0  0  0  0  0  0
    3.7378   -0.6391    2.2215 H   0  0  0  0  0  0  0  0  0  0  0  0
    2.7228   -2.0600   -1.7433 H   0  0  0  0  0  0  0  0  0  0  0  0
    5.0258   -1.8597   -2.4143 H   0  0  0  0  0  0  0  0  0  0  0  0
    6.7438   -1.0587   -0.8353 H   0  0  0  0  0  0  0  0  0  0  0  0
  1 27  1  0  0  0  0
  2 10  1  0  0  0  0
  2 12  1  0  0  0  0
  3 11  1  0  0  0  0
  3 43  1  0  0  0  0
  4 14  1  0  0  0  0
  4 45  1  0  0  0  0
  5 18  2  0  0  0  0
  6  9  1  0  0  0  0
  6 15  1  0  0  0  0
  6 16  1  0  0  0  0
  7 13  1  0  0  0  0
  7 18  1  0  0  0  0
  7 44  1  0  0  0  0
  8 18  1  0  0  0  0
  8 24  1  0  0  0  0
  8 48  1  0  0  0  0
  9 10  1  0  0  0  0
  9 11  1  0  0  0  0
  9 30  1  0  0  0  0
 10 13  1  0  0  0  0
 10 31  1  0  0  0  0
 11 12  1  0  0  0  0
 11 32  1  0  0  0  0
 12 14  1  0  0  0  0
 12 33  1  0  0  0  0
 13 34  1  0  0  0  0
 13 35  1  0  0  0  0
 14 36  1  0  0  0  0
 14 37  1  0  0  0  0
 15 17  1  0  0  0  0
 15 38  1  0  0  0  0
 15 39  1  0  0  0  0
 16 40  1  0  0  0  0
 16 41  1  0  0  0  0
 16 42  1  0  0  0  0
 17 19  2  0  0  0  0
 17 20  1  0  0  0  0
 19 21  1  0  0  0  0
 19 46  1  0  0  0  0
 20 22  2  0  0  0  0
 20 47  1  0  0  0  0
 21 23  2  0  0  0  0
 21 49  1  0  0  0  0
 22 23  1  0  0  0  0
 22 50  1  0  0  0  0
 23 51  1  0  0  0  0
 24 25  2  0  0  0  0
 24 26  1  0  0  0  0
 25 27  1  0  0  0  0
 25 52  1  0  0  0  0
 26 28  2  0  0  0  0
 26 53  1  0  0  0  0
 27 29  2  0  0  0  0
 28 29  1  0  0  0  0
 28 54  1  0  0  0  0
 29 55  1  0  0  0  0
M  END
> <PUBCHEM_COMPOUND_CID>
28962329

> <PUBCHEM_CONFORMER_RMSD>
1.2

> <PUBCHEM_CONFORMER_DIVERSEORDER>
1
25
142
138
109
61
45
67
131
165
53
90
12
164
166
65
63
169
30
73
121
88
118
108
68
141
82
29
176
32
119
178
41
116
26
85
102
123
173
117
130
54
128
139
13
58
182
97
86
94
36
103
171
120
159
7
59
162
81
89
148
147
156
134
98
22
132
79
111
99
72
49
146
31
181
42
175
57
95
69
83
39
126
136
62
4
44
161
6
163
77
149
50
122
174
151
112
71
43
11
84
160
135
96
56
33
78
70
144
40
168
107
46
52
64
74
158
106
47
177
76
179
129
127
8
60
55
27
153
170
80
35
23
114
87
16
104
3
157
143
155
21
100
10
28
92
105
150
110
145
18
172
140
66
154
37
2
24
51
113
93
75
124
133
180
125
20
91
48
115
38
14
101
137
34
9
19
15
17
167
5
152
183

> <PUBCHEM_MMFF94_PARTIAL_CHARGES>
42
1 -0.18
10 0.28
11 0.28
12 0.28
13 0.3
14 0.28
15 0.41
16 0.27
17 -0.14
18 0.69
19 -0.15
2 -0.56
20 -0.15
21 -0.15
22 -0.15
23 -0.15
24 0.12
25 -0.15
26 -0.15
27 0.18
28 -0.15
29 -0.15
3 -0.68
4 -0.68
43 0.4
44 0.37
45 0.4
46 0.15
47 0.15
48 0.37
49 0.15
5 -0.57
50 0.15
51 0.15
52 0.15
53 0.15
54 0.15
55 0.15
6 -0.81
7 -0.73
8 -0.55
9 0.27

> <PUBCHEM_EFFECTIVE_ROTOR_COUNT>
10

> <PUBCHEM_PHARMACOPHORE_FEATURES>
12
1 2 acceptor
1 3 acceptor
1 3 donor
1 4 acceptor
1 4 donor
1 5 acceptor
1 6 cation
1 7 donor
1 8 donor
5 2 9 10 11 12 rings
6 17 19 20 21 22 23 rings
6 24 25 26 27 28 29 rings

> <PUBCHEM_HEAVY_ATOM_COUNT>
29

> <PUBCHEM_ATOM_DEF_STEREO_COUNT>
4

> <PUBCHEM_ATOM_UDEF_STEREO_COUNT>
0

> <PUBCHEM_BOND_DEF_STEREO_COUNT>
0

> <PUBCHEM_BOND_UDEF_STEREO_COUNT>
0

> <PUBCHEM_ISOTOPIC_ATOM_COUNT>
0

> <PUBCHEM_COMPONENT_COUNT>
1

> <PUBCHEM_CACTVS_TAUTO_COUNT>
3

> <PUBCHEM_CONFORMER_ID>
01B9EE1900000001

> <PUBCHEM_MMFF94_ENERGY>
84.0889

> <PUBCHEM_FEATURE_SELFOVERLAP>
60.951

> <PUBCHEM_SHAPE_FINGERPRINT>
10498660 4 18192428567988348534
10670039 82 18190474762076071494
1100329 8 18335421317431971698
11595378 159 18116977920159939354
11646440 116 18409174302596822242
12156800 1 15432806196522143412
12166972 35 18343022206996954763
12553582 1 18263944158480892060
12788726 201 18188216390782652514
13140716 1 18334584584782589418
13402501 40 18271799108557623810
13533116 47 18267306611289175645
13782708 43 17702387248001790398
14068700 675 18413387631143988097
14081887 123 18193833748444410744
14117953 113 18268432330543615821
14394314 77 18336549313610253176
15927050 60 17834680766096004732
17980427 23 18201717345082860949
18336668 15 18113054922252943852
18393751 57 18128515216035044898
18681886 176 18341610438414968682
20028762 73 18342740727842036055
20642791 178 18337684044301879961
20721686 56 18261677085752758048
21033648 29 17774709905387156578
21344244 246 18050835913301281871
22113638 7 18412542145536197886
23559900 14 18342167891142489185
24771293 8 18343015601727838464
25019877 29 17418368104247281334
3680242 22 18188212000988472626
392239 28 18336259043125556800
463206 1 18334583476865955056
469060 322 18263369096788274752
513532 50 17987810742855723684
653340 110 18123468281163757064
9981440 41 17473541829367027672

> <PUBCHEM_SHAPE_MULTIPOLES>
560.26
13.13
4.12
1.38
0.33
4.18
-0.29
-8.63
-2.53
-0.83
0.71
-1.34
0.07
-0.69

> <PUBCHEM_SHAPE_SELFOVERLAP>
1173.416

> <PUBCHEM_SHAPE_VOLUME>
316.7

> <PUBCHEM_COORDINATE_TYPE>
2
5
10

$$$$
