38026967
  -OEChem-12032416413D

 66 67  0     1  0  0  0  0  0999 V2000
    1.1921   -2.8813   -0.4515 O   0  0  0  0  0  0  0  0  0  0  0  0
   -3.6868    2.6868   -1.1257 O   0  0  0  0  0  0  0  0  0  0  0  0
   -1.8627    4.5143   -0.3640 O   0  0  0  0  0  0  0  0  0  0  0  0
    6.2272    2.1440    0.2426 O   0  0  0  0  0  0  0  0  0  0  0  0
    2.4306   -0.9248   -0.2712 N   0  0  0  0  0  0  0  0  0  0  0  0
   -3.4365    1.4546    0.8331 N   0  0  0  0  0  0  0  0  0  0  0  0
    5.0157    0.1663    0.1195 N   0  0  0  0  0  0  0  0  0  0  0  0
   -2.7052   -1.0587   -0.6473 C   0  0  1  0  0  0  0  0  0  0  0  0
   -3.7170   -0.9479    0.5206 C   0  0  1  0  0  0  0  0  0  0  0  0
   -1.7487   -2.2389   -0.4180 C   0  0  0  0  0  0  0  0  0  0  0  0
   -0.9612   -2.1031    0.8989 C   0  0  2  0  0  0  0  0  0  0  0  0
   -3.4107   -1.2177   -1.9978 C   0  0  0  0  0  0  0  0  0  0  0  0
   -1.8622   -1.7273    2.0576 C   0  0  0  0  0  0  0  0  0  0  0  0
   -3.0955   -1.2251    1.8694 C   0  0  0  0  0  0  0  0  0  0  0  0
    0.1909   -1.1029    0.7528 C   0  0  0  0  0  0  0  0  0  0  0  0
   -4.3891    0.4297    0.5414 C   0  0  0  0  0  0  0  0  0  0  0  0
   -2.5092   -0.7338   -3.1293 C   0  0  0  0  0  0  0  0  0  0  0  0
   -3.8202   -2.6707   -2.2162 C   0  0  0  0  0  0  0  0  0  0  0  0
   -1.3303   -1.9848    3.4401 C   0  0  0  0  0  0  0  0  0  0  0  0
    1.3103   -1.7226   -0.0450 C   0  0  0  0  0  0  0  0  0  0  0  0
    3.5631   -1.4541   -1.0351 C   0  0  0  0  0  0  0  0  0  0  0  0
    2.5712    0.4801    0.1340 C   0  0  0  0  0  0  0  0  0  0  0  0
    4.8753   -1.2385   -0.2858 C   0  0  0  0  0  0  0  0  0  0  0  0
    3.8833    0.6953    0.8836 C   0  0  0  0  0  0  0  0  0  0  0  0
   -3.1575    2.5127   -0.0314 C   0  0  0  0  0  0  0  0  0  0  0  0
    6.1350    0.9651   -0.1087 C   0  0  0  0  0  0  0  0  0  0  0  0
   -2.1099    3.4501    0.5301 C   0  0  0  0  0  0  0  0  0  0  0  0
    7.2871    0.3197   -0.8362 C   0  0  0  0  0  0  0  0  0  0  0  0
   -0.8792    5.4137    0.1396 C   0  0  0  0  0  0  0  0  0  0  0  0
   -2.1075   -0.1407   -0.6827 H   0  0  0  0  0  0  0  0  0  0  0  0
   -4.5102   -1.6949    0.3906 H   0  0  0  0  0  0  0  0  0  0  0  0
   -1.0685   -2.3585   -1.2663 H   0  0  0  0  0  0  0  0  0  0  0  0
   -2.3089   -3.1791   -0.3309 H   0  0  0  0  0  0  0  0  0  0  0  0
   -0.5598   -3.0995    1.1320 H   0  0  0  0  0  0  0  0  0  0  0  0
   -4.3155   -0.6022   -2.0308 H   0  0  0  0  0  0  0  0  0  0  0  0
   -3.7166   -1.0173    2.7387 H   0  0  0  0  0  0  0  0  0  0  0  0
    0.6039   -0.8430    1.7337 H   0  0  0  0  0  0  0  0  0  0  0  0
   -0.1412   -0.1809    0.2664 H   0  0  0  0  0  0  0  0  0  0  0  0
   -5.1447    0.4692    1.3354 H   0  0  0  0  0  0  0  0  0  0  0  0
   -4.9100    0.6453   -0.3954 H   0  0  0  0  0  0  0  0  0  0  0  0
   -1.5858   -1.3161   -3.2045 H   0  0  0  0  0  0  0  0  0  0  0  0
   -2.2368    0.3180   -2.9901 H   0  0  0  0  0  0  0  0  0  0  0  0
   -3.0273   -0.8139   -4.0913 H   0  0  0  0  0  0  0  0  0  0  0  0
   -2.9733   -3.3279   -2.4398 H   0  0  0  0  0  0  0  0  0  0  0  0
   -4.4812   -2.7303   -3.0897 H   0  0  0  0  0  0  0  0  0  0  0  0
   -4.3846   -3.0822   -1.3741 H   0  0  0  0  0  0  0  0  0  0  0  0
   -1.0299   -3.0326    3.5429 H   0  0  0  0  0  0  0  0  0  0  0  0
   -2.0800   -1.7827    4.2127 H   0  0  0  0  0  0  0  0  0  0  0  0
   -0.4642   -1.3516    3.6522 H   0  0  0  0  0  0  0  0  0  0  0  0
   -2.9795    1.4402    1.7406 H   0  0  0  0  0  0  0  0  0  0  0  0
    3.5793   -0.9203   -1.9931 H   0  0  0  0  0  0  0  0  0  0  0  0
    3.4271   -2.5184   -1.2508 H   0  0  0  0  0  0  0  0  0  0  0  0
    1.7404    0.8195    0.7542 H   0  0  0  0  0  0  0  0  0  0  0  0
    2.5583    1.0762   -0.7864 H   0  0  0  0  0  0  0  0  0  0  0  0
    4.8900   -1.8356    0.6340 H   0  0  0  0  0  0  0  0  0  0  0  0
    5.7079   -1.5720   -0.9074 H   0  0  0  0  0  0  0  0  0  0  0  0
    4.0193    1.7593    1.1009 H   0  0  0  0  0  0  0  0  0  0  0  0
    3.8665    0.1606    1.8409 H   0  0  0  0  0  0  0  0  0  0  0  0
   -2.4726    3.8424    1.4872 H   0  0  0  0  0  0  0  0  0  0  0  0
   -1.1890    2.8785    0.6955 H   0  0  0  0  0  0  0  0  0  0  0  0
    6.9831    0.0378   -1.8477 H   0  0  0  0  0  0  0  0  0  0  0  0
    7.6430   -0.5545   -0.2844 H   0  0  0  0  0  0  0  0  0  0  0  0
    8.1139    1.0325   -0.9134 H   0  0  0  0  0  0  0  0  0  0  0  0
   -0.7339    6.2101   -0.5951 H   0  0  0  0  0  0  0  0  0  0  0  0
    0.0727    4.8946    0.2874 H   0  0  0  0  0  0  0  0  0  0  0  0
   -1.2164    5.8608    1.0798 H   0  0  0  0  0  0  0  0  0  0  0  0
  1 20  2  0  0  0  0
  2 25  2  0  0  0  0
  3 27  1  0  0  0  0
  3 29  1  0  0  0  0
  4 26  2  0  0  0  0
  5 20  1  0  0  0  0
  5 21  1  0  0  0  0
  5 22  1  0  0  0  0
  6 16  1  0  0  0  0
  6 25  1  0  0  0  0
  6 50  1  0  0  0  0
  7 23  1  0  0  0  0
  7 24  1  0  0  0  0
  7 26  1  0  0  0  0
  8  9  1  0  0  0  0
  8 10  1  0  0  0  0
  8 12  1  0  0  0  0
  8 30  1  0  0  0  0
  9 14  1  0  0  0  0
  9 16  1  0  0  0  0
  9 31  1  0  0  0  0
 10 11  1  0  0  0  0
 10 32  1  0  0  0  0
 10 33  1  0  0  0  0
 11 13  1  0  0  0  0
 11 15  1  0  0  0  0
 11 34  1  0  0  0  0
 12 17  1  0  0  0  0
 12 18  1  0  0  0  0
 12 35  1  0  0  0  0
 13 14  2  0  0  0  0
 13 19  1  0  0  0  0
 14 36  1  0  0  0  0
 15 20  1  0  0  0  0
 15 37  1  0  0  0  0
 15 38  1  0  0  0  0
 16 39  1  0  0  0  0
 16 40  1  0  0  0  0
 17 41  1  0  0  0  0
 17 42  1  0  0  0  0
 17 43  1  0  0  0  0
 18 44  1  0  0  0  0
 18 45  1  0  0  0  0
 18 46  1  0  0  0  0
 19 47  1  0  0  0  0
 19 48  1  0  0  0  0
 19 49  1  0  0  0  0
 21 23  1  0  0  0  0
 21 51  1  0  0  0  0
 21 52  1  0  0  0  0
 22 24  1  0  0  0  0
 22 53  1  0  0  0  0
 22 54  1  0  0  0  0
 23 55  1  0  0  0  0
 23 56  1  0  0  0  0
 24 57  1  0  0  0  0
 24 58  1  0  0  0  0
 25 27  1  0  0  0  0
 26 28  1  0  0  0  0
 27 59  1  0  0  0  0
 27 60  1  0  0  0  0
 28 61  1  0  0  0  0
 28 62  1  0  0  0  0
 28 63  1  0  0  0  0
 29 64  1  0  0  0  0
 29 65  1  0  0  0  0
 29 66  1  0  0  0  0
M  END
> <PUBCHEM_COMPOUND_CID>
38026967

> <PUBCHEM_CONFORMER_RMSD>
1

> <PUBCHEM_CONFORMER_DIVERSEORDER>
1
73
148
108
47
90
102
12
83
123
13
130
72
20
40
132
75
94
144
30
125
101
6
117
106
109
136
107
42
29
45
127
142
61
60
140
145
34
139
138
111
91
74
76
150
28
78
120
84
38
41
118
79
98
103
80
147
110
137
62
33
50
46
100
55
58
92
134
71
151
87
113
86
19
10
67
146
122
135
44
68
64
3
93
54
36
23
96
39
7
149
116
9
97
121
131
133
99
88
112
21
18
37
128
126
56
89
115
143
124
105
59
17
82
52
22
57
16
2
119
8
114
129
35
104
11
26
15
48
49
69
43
70
66
4
95
5
27
53
85
24
65
63
81
77
32
141
25
51
14
31

> <PUBCHEM_MMFF94_PARTIAL_CHARGES>
26
1 -0.57
11 0.14
13 -0.28
14 -0.29
15 0.06
16 0.3
19 0.14
2 -0.57
20 0.57
21 0.3
22 0.3
23 0.3
24 0.3
25 0.57
26 0.57
27 0.34
28 0.06
29 0.28
3 -0.56
36 0.15
4 -0.57
5 -0.66
50 0.37
6 -0.73
7 -0.66
9 0.14

> <PUBCHEM_EFFECTIVE_ROTOR_COUNT>
12

> <PUBCHEM_PHARMACOPHORE_FEATURES>
8
1 1 acceptor
1 2 acceptor
1 3 acceptor
1 4 acceptor
1 6 donor
3 12 17 18 hydrophobe
6 5 7 21 22 23 24 rings
6 8 9 10 11 13 14 rings

> <PUBCHEM_HEAVY_ATOM_COUNT>
29

> <PUBCHEM_ATOM_DEF_STEREO_COUNT>
3

> <PUBCHEM_ATOM_UDEF_STEREO_COUNT>
0

> <PUBCHEM_BOND_DEF_STEREO_COUNT>
0

> <PUBCHEM_BOND_UDEF_STEREO_COUNT>
0

> <PUBCHEM_ISOTOPIC_ATOM_COUNT>
0

> <PUBCHEM_COMPONENT_COUNT>
1

> <PUBCHEM_CACTVS_TAUTO_COUNT>
2

> <PUBCHEM_CONFORMER_ID>
02443ED700000001

> <PUBCHEM_MMFF94_ENERGY>
60.6958

> <PUBCHEM_FEATURE_SELFOVERLAP>
40.604

> <PUBCHEM_SHAPE_FINGERPRINT>
10006869 2 17974002852648800329
10087517 78 18412260653738450180
10291535 26 18335144210494679386
10816530 145 17023476346835998516
12788726 201 18335413543683675560
14142880 1 17458628870414105967
14251764 75 17836654024159389497
14950920 106 13046244756841174316
16067690 210 18187353364207445768
16992787 43 18192990423443742621
19930381 70 17546443835935124579
21033648 144 17915177047821907746
21859007 373 18343293761812677536
23419403 2 17464534588038475627
23559900 14 15123502640631982354
312425 83 18057604261451784006
469060 322 18200036286631538003
497634 4 17060064782251454971
508706 21 18341886450525107824
5171179 24 17987222508013567128
531348 171 18201159858591993630
57527306 92 18333728014565867141
7288768 16 17823142233249491489

> <PUBCHEM_SHAPE_MULTIPOLES>
558.39
12.79
4.92
2.27
28.43
9.19
0.18
2.64
-3.03
-4.66
-0.13
-3.25
-2.06
0.04

> <PUBCHEM_SHAPE_SELFOVERLAP>
1122.506

> <PUBCHEM_SHAPE_VOLUME>
325.5

> <PUBCHEM_COORDINATE_TYPE>
2
5
10

$$$$
