75536665
  -OEChem-12032416343D

 43 44  0     1  0  0  0  0  0999 V2000
    6.9477   -0.1253    0.4058 S   0  0  0  0  0  0  0  0  0  0  0  0
    2.7260   -0.9251   -1.1570 O   0  0  0  0  0  0  0  0  0  0  0  0
    1.8125    2.1121    0.5301 O   0  0  0  0  0  0  0  0  0  0  0  0
    7.1166    1.3087    0.5364 O   0  0  0  0  0  0  0  0  0  0  0  0
    7.9209   -0.9245   -0.3137 O   0  0  0  0  0  0  0  0  0  0  0  0
   -7.6095    0.9087    0.7460 O   0  0  0  0  0  0  0  0  0  0  0  0
   -7.4347   -1.3031    1.2401 O   0  0  0  0  0  0  0  0  0  0  0  0
   -0.5927    0.2349   -0.2233 N   0  0  0  0  0  0  0  0  0  0  0  0
    5.3978   -0.4718   -0.2178 N   0  0  0  0  0  0  0  0  0  0  0  0
    0.7518    0.3367   -0.7672 C   0  0  1  0  0  0  0  0  0  0  0  0
    1.7975    0.7234    0.2622 C   0  0  1  0  0  0  0  0  0  0  0  0
    3.0740    0.2649   -0.4300 C   0  0  1  0  0  0  0  0  0  0  0  0
    1.2930   -0.9954   -1.2600 C   0  0  0  0  0  0  0  0  0  0  0  0
    4.2059   -0.0362    0.5360 C   0  0  0  0  0  0  0  0  0  0  0  0
   -1.5884    0.1978   -1.2877 C   0  0  0  0  0  0  0  0  0  0  0  0
   -2.9867    0.0758   -0.7432 C   0  0  0  0  0  0  0  0  0  0  0  0
    6.8027   -0.8102    2.0405 C   0  0  0  0  0  0  0  0  0  0  0  0
   -3.4440   -1.1524   -0.2655 C   0  0  0  0  0  0  0  0  0  0  0  0
   -3.8249    1.1904   -0.7166 C   0  0  0  0  0  0  0  0  0  0  0  0
   -4.7393   -1.2659    0.2389 C   0  0  0  0  0  0  0  0  0  0  0  0
   -5.1204    1.0768   -0.2122 C   0  0  0  0  0  0  0  0  0  0  0  0
   -5.5777   -0.1513    0.2658 C   0  0  0  0  0  0  0  0  0  0  0  0
   -6.9281   -0.2689    0.7924 C   0  0  0  0  0  0  0  0  0  0  0  0
    0.7791    1.0815   -1.5752 H   0  0  0  0  0  0  0  0  0  0  0  0
    1.6425    0.1832    1.2045 H   0  0  0  0  0  0  0  0  0  0  0  0
    3.4100    1.0099   -1.1634 H   0  0  0  0  0  0  0  0  0  0  0  0
    0.9655   -1.8349   -0.6358 H   0  0  0  0  0  0  0  0  0  0  0  0
    1.0144   -1.2073   -2.2966 H   0  0  0  0  0  0  0  0  0  0  0  0
    3.9238   -0.8484    1.2154 H   0  0  0  0  0  0  0  0  0  0  0  0
    4.4312    0.8598    1.1232 H   0  0  0  0  0  0  0  0  0  0  0  0
   -0.7740    1.0451    0.3700 H   0  0  0  0  0  0  0  0  0  0  0  0
   -1.4116   -0.6529   -1.9581 H   0  0  0  0  0  0  0  0  0  0  0  0
   -1.5178    1.0999   -1.9094 H   0  0  0  0  0  0  0  0  0  0  0  0
    1.9490    2.5839   -0.3089 H   0  0  0  0  0  0  0  0  0  0  0  0
    5.2812   -1.3862   -0.6744 H   0  0  0  0  0  0  0  0  0  0  0  0
    6.0720   -0.2405    2.6161 H   0  0  0  0  0  0  0  0  0  0  0  0
    6.5150   -1.8603    1.9624 H   0  0  0  0  0  0  0  0  0  0  0  0
    7.7811   -0.7341    2.5209 H   0  0  0  0  0  0  0  0  0  0  0  0
   -2.8000   -2.0279   -0.2817 H   0  0  0  0  0  0  0  0  0  0  0  0
   -3.4808    2.1538   -1.0836 H   0  0  0  0  0  0  0  0  0  0  0  0
   -5.0766   -2.2316    0.6065 H   0  0  0  0  0  0  0  0  0  0  0  0
   -5.7391    1.9698   -0.2096 H   0  0  0  0  0  0  0  0  0  0  0  0
   -8.5187    0.8185    1.1034 H   0  0  0  0  0  0  0  0  0  0  0  0
  1  4  2  0  0  0  0
  1  5  2  0  0  0  0
  1  9  1  0  0  0  0
  1 17  1  0  0  0  0
  2 12  1  0  0  0  0
  2 13  1  0  0  0  0
  3 11  1  0  0  0  0
  3 34  1  0  0  0  0
  6 23  1  0  0  0  0
  6 43  1  0  0  0  0
  7 23  2  0  0  0  0
  8 10  1  0  0  0  0
  8 15  1  0  0  0  0
  8 31  1  0  0  0  0
  9 14  1  0  0  0  0
  9 35  1  0  0  0  0
 10 11  1  0  0  0  0
 10 13  1  0  0  0  0
 10 24  1  0  0  0  0
 11 12  1  0  0  0  0
 11 25  1  0  0  0  0
 12 14  1  0  0  0  0
 12 26  1  0  0  0  0
 13 27  1  0  0  0  0
 13 28  1  0  0  0  0
 14 29  1  0  0  0  0
 14 30  1  0  0  0  0
 15 16  1  0  0  0  0
 15 32  1  0  0  0  0
 15 33  1  0  0  0  0
 16 18  2  0  0  0  0
 16 19  1  0  0  0  0
 17 36  1  0  0  0  0
 17 37  1  0  0  0  0
 17 38  1  0  0  0  0
 18 20  1  0  0  0  0
 18 39  1  0  0  0  0
 19 21  2  0  0  0  0
 19 40  1  0  0  0  0
 20 22  2  0  0  0  0
 20 41  1  0  0  0  0
 21 22  1  0  0  0  0
 21 42  1  0  0  0  0
 22 23  1  0  0  0  0
M  END
> <PUBCHEM_COMPOUND_CID>
75536665

> <PUBCHEM_CONFORMER_RMSD>
0.8

> <PUBCHEM_CONFORMER_DIVERSEORDER>
2
52
106
133
103
99
115
105
28
53
42
107
47
147
51
34
118
35
22
82
108
20
23
55
66
131
123
24
125
98
76
94
101
50
86
41
120
65
60
149
127
19
72
137
100
39
124
136
84
64
121
85
44
110
140
117
145
144
96
37
109
97
57
138
113
126
104
49
148
63
38
25
122
112
79
92
128
61
132
26
6
146
16
78
141
46
31
27
83
40
71
143
87
129
119
54
80
111
13
45
58
88
139
15
62
48
75
9
134
91
90
56
30
89
10
74
114
14
116
33
81
11
12
68
3
18
29
93
70
69
102
59
8
135
73
95
5
36
32
17
77
1
130
67
21
142
7
4
43

> <PUBCHEM_MMFF94_PARTIAL_CHARGES>
31
1 1.33
10 0.27
11 0.28
12 0.28
13 0.28
14 0.36
15 0.41
16 -0.14
17 0.11
18 -0.15
19 -0.15
2 -0.56
20 -0.15
21 -0.15
22 0.09
23 0.63
3 -0.68
31 0.36
34 0.4
35 0.42
39 0.15
4 -0.65
40 0.15
41 0.15
42 0.15
43 0.5
5 -0.65
6 -0.65
7 -0.57
8 -0.9
9 -0.91

> <PUBCHEM_EFFECTIVE_ROTOR_COUNT>
8

> <PUBCHEM_PHARMACOPHORE_FEATURES>
13
1 2 acceptor
1 3 acceptor
1 3 donor
1 4 acceptor
1 5 acceptor
1 6 acceptor
1 7 acceptor
1 8 cation
1 8 donor
1 9 donor
3 6 7 23 anion
5 2 10 11 12 13 rings
6 16 18 19 20 21 22 rings

> <PUBCHEM_HEAVY_ATOM_COUNT>
23

> <PUBCHEM_ATOM_DEF_STEREO_COUNT>
3

> <PUBCHEM_ATOM_UDEF_STEREO_COUNT>
0

> <PUBCHEM_BOND_DEF_STEREO_COUNT>
0

> <PUBCHEM_BOND_UDEF_STEREO_COUNT>
0

> <PUBCHEM_ISOTOPIC_ATOM_COUNT>
0

> <PUBCHEM_COMPONENT_COUNT>
1

> <PUBCHEM_CACTVS_TAUTO_COUNT>
1

> <PUBCHEM_CONFORMER_ID>
0480991900000002

> <PUBCHEM_MMFF94_ENERGY>
48.4834

> <PUBCHEM_FEATURE_SELFOVERLAP>
66.049

> <PUBCHEM_SHAPE_FINGERPRINT>
10 15 18342175587607436052
10066227 49 10953722401433690160
10299344 5 17530685398677522322
106641 1 18186518835029038732
10968037 39 9151174247470207481
11089746 13 15051727603490209025
11315181 36 17676207970749268181
11646440 116 17918276454350690136
12166972 35 15936413346738816380
12236239 1 16298107579631555613
125118 31 14261345882489371522
12516196 113 17458341940591494284
13073987 5 18199754652497586775
13288520 33 16877941638130757853
13668630 136 14634871955249209571
13685833 64 17458061560451460362
13862211 1 13262390043407849876
13885169 127 16081361922216695957
13968360 50 8646778794065753296
14251764 18 18334857237907068975
14251764 46 18273778246978745199
14849402 71 18199185273068788384
15048467 5 14836402536420388918
15183329 4 15068621574361290304
15348495 7 18058721537311793618
155225 1 14189303634860131219
15690457 1 17022903480188193363
15716309 27 17967249801678869534
18335252 114 12463567379296580634
18335252 98 17603301545492623178
18681886 176 15213019379316144164
20281389 69 15985104098409814698
21150785 3 13551192191027597166
21267235 1 14707212110816740447
21315759 40 17095246908045712077
21521239 73 13695862598448324344
21521721 280 18261110816348831584
22224240 67 17846494841878809519
23035841 295 16877663474283766235
23522609 53 17024617523810022140
23559900 14 8141792864619575919
23569943 247 15359641300054991640
246663 6 17240205430109018235
300161 21 14979956965092156845
3178227 256 18272088314433275512
33532 11 16877937214240915066
34797466 226 17603591825131309054
4093350 32 16773801351372859294
4325135 7 9871749087741844907
4340502 62 18187361018144867998
5104073 3 18057326089283291995
5283156 175 16370443341347315639
5385378 56 16988571164743436054
5758199 1 16773794805457129574
59682541 35 18131349747666863323

> <PUBCHEM_SHAPE_MULTIPOLES>
432
24.11
1.34
1.23
8.64
0.04
0.01
-5.99
9.4
-0.64
0.29
0.81
-0.17
0.22

> <PUBCHEM_SHAPE_SELFOVERLAP>
881.109

> <PUBCHEM_SHAPE_VOLUME>
251.5

> <PUBCHEM_COORDINATE_TYPE>
2
5
10

$$$$
