75536975
  -OEChem-12032416323D

 39 41  0     1  0  0  0  0  0999 V2000
   -4.4511    1.1127   -0.0359 S   0  0  0  0  0  0  0  0  0  0  0  0
    1.0295   -2.6110   -0.9678 O   0  0  0  0  0  0  0  0  0  0  0  0
   -4.5426    1.8791    1.1868 O   0  0  0  0  0  0  0  0  0  0  0  0
   -5.5963    0.4304   -0.5954 O   0  0  0  0  0  0  0  0  0  0  0  0
   -0.7961   -1.4919   -0.0011 N   0  0  0  0  0  0  0  0  0  0  0  0
   -3.1628   -0.0080    0.1137 N   0  0  2  0  0  0  0  0  0  0  0  0
    1.2465   -1.1490    0.8694 N   0  0  0  0  0  0  0  0  0  0  0  0
    4.4808    2.0798    0.4128 N   0  0  0  0  0  0  0  0  0  0  0  0
   -1.0314   -0.6544    1.1595 C   0  0  2  0  0  0  0  0  0  0  0  0
   -1.9337    0.5194    0.7950 C   0  0  0  0  0  0  0  0  0  0  0  0
    0.3721   -0.2602    1.6144 C   0  0  0  0  0  0  0  0  0  0  0  0
   -1.9190   -1.9435   -0.7991 C   0  0  0  0  0  0  0  0  0  0  0  0
   -2.8260   -0.7649   -1.1383 C   0  0  0  0  0  0  0  0  0  0  0  0
    0.5524   -1.8498   -0.1365 C   0  0  0  0  0  0  0  0  0  0  0  0
    2.6762   -1.1747    1.0851 C   0  0  0  0  0  0  0  0  0  0  0  0
   -3.7676    2.1617   -1.2924 C   0  0  0  0  0  0  0  0  0  0  0  0
    3.3758   -0.0695    0.3480 C   0  0  0  0  0  0  0  0  0  0  0  0
    3.5723   -0.1373   -1.0268 C   0  0  0  0  0  0  0  0  0  0  0  0
    3.8447    1.0505    1.0157 C   0  0  0  0  0  0  0  0  0  0  0  0
    4.2226    0.9020   -1.6827 C   0  0  0  0  0  0  0  0  0  0  0  0
    4.6536    1.9786   -0.9242 C   0  0  0  0  0  0  0  0  0  0  0  0
   -1.5137   -1.2880    1.9148 H   0  0  0  0  0  0  0  0  0  0  0  0
   -2.1991    1.0589    1.7093 H   0  0  0  0  0  0  0  0  0  0  0  0
   -1.4104    1.2069    0.1210 H   0  0  0  0  0  0  0  0  0  0  0  0
    0.6244    0.7736    1.3575 H   0  0  0  0  0  0  0  0  0  0  0  0
    0.5114   -0.4135    2.6888 H   0  0  0  0  0  0  0  0  0  0  0  0
   -2.4607   -2.6845   -0.2003 H   0  0  0  0  0  0  0  0  0  0  0  0
   -1.5543   -2.4380   -1.7047 H   0  0  0  0  0  0  0  0  0  0  0  0
   -2.3034   -0.1053   -1.8395 H   0  0  0  0  0  0  0  0  0  0  0  0
   -3.7363   -1.1405   -1.6155 H   0  0  0  0  0  0  0  0  0  0  0  0
    3.0666   -2.1368    0.7317 H   0  0  0  0  0  0  0  0  0  0  0  0
    2.8688   -1.1271    2.1629 H   0  0  0  0  0  0  0  0  0  0  0  0
   -4.4747    2.9822   -1.4445 H   0  0  0  0  0  0  0  0  0  0  0  0
   -2.8167    2.5804   -0.9635 H   0  0  0  0  0  0  0  0  0  0  0  0
   -3.6677    1.6154   -2.2304 H   0  0  0  0  0  0  0  0  0  0  0  0
    3.2295   -0.9947   -1.5985 H   0  0  0  0  0  0  0  0  0  0  0  0
    3.7197    1.1629    2.0882 H   0  0  0  0  0  0  0  0  0  0  0  0
    4.3879    0.8701   -2.7535 H   0  0  0  0  0  0  0  0  0  0  0  0
    5.1663    2.8148   -1.3881 H   0  0  0  0  0  0  0  0  0  0  0  0
  1  3  2  0  0  0  0
  1  4  2  0  0  0  0
  1  6  1  0  0  0  0
  1 16  1  0  0  0  0
  2 14  2  0  0  0  0
  5  9  1  0  0  0  0
  5 12  1  0  0  0  0
  5 14  1  0  0  0  0
  6 10  1  0  0  0  0
  6 13  1  0  0  0  0
  7 11  1  0  0  0  0
  7 14  1  0  0  0  0
  7 15  1  0  0  0  0
  8 19  1  0  0  0  0
  8 21  2  0  0  0  0
  9 10  1  0  0  0  0
  9 11  1  0  0  0  0
  9 22  1  0  0  0  0
 10 23  1  0  0  0  0
 10 24  1  0  0  0  0
 11 25  1  0  0  0  0
 11 26  1  0  0  0  0
 12 13  1  0  0  0  0
 12 27  1  0  0  0  0
 12 28  1  0  0  0  0
 13 29  1  0  0  0  0
 13 30  1  0  0  0  0
 15 17  1  0  0  0  0
 15 31  1  0  0  0  0
 15 32  1  0  0  0  0
 16 33  1  0  0  0  0
 16 34  1  0  0  0  0
 16 35  1  0  0  0  0
 17 18  1  0  0  0  0
 17 19  2  0  0  0  0
 18 20  2  0  0  0  0
 18 36  1  0  0  0  0
 19 37  1  0  0  0  0
 20 21  1  0  0  0  0
 20 38  1  0  0  0  0
 21 39  1  0  0  0  0
M  END
> <PUBCHEM_COMPOUND_CID>
75536975

> <PUBCHEM_CONFORMER_RMSD>
0.6

> <PUBCHEM_CONFORMER_DIVERSEORDER>
1
140
127
130
131
89
32
107
102
87
21
104
94
53
90
91
151
73
48
118
115
22
124
63
101
109
129
30
156
128
74
108
116
50
149
88
103
144
98
153
38
58
99
80
110
42
49
97
35
67
57
143
154
123
64
81
41
152
146
31
125
132
141
68
72
76
36
29
126
100
14
119
145
78
47
56
122
77
92
142
71
135
37
54
69
133
96
117
139
120
25
55
134
12
79
155
44
137
106
5
136
111
82
27
105
121
83
148
17
95
70
62
59
16
93
26
6
147
33
114
52
150
15
18
8
86
112
138
60
40
51
19
84
85
113
75
28
7
66
39
43
20
2
3
61
65
34
11
10
4
23
46
13
9
24
45

> <PUBCHEM_MMFF94_PARTIAL_CHARGES>
25
1 1.33
10 0.36
11 0.3
12 0.3
13 0.36
14 0.69
15 0.44
16 0.11
17 -0.14
18 -0.15
19 0.16
2 -0.57
20 -0.15
21 0.16
3 -0.65
36 0.15
37 0.15
38 0.15
39 0.15
4 -0.65
5 -0.66
6 -0.85
7 -0.66
8 -0.62
9 0.3

> <PUBCHEM_EFFECTIVE_ROTOR_COUNT>
4.2

> <PUBCHEM_PHARMACOPHORE_FEATURES>
7
1 2 acceptor
1 3 acceptor
1 4 acceptor
1 8 acceptor
5 5 7 9 11 14 rings
6 5 6 9 10 12 13 rings
6 8 17 18 19 20 21 rings

> <PUBCHEM_HEAVY_ATOM_COUNT>
21

> <PUBCHEM_ATOM_DEF_STEREO_COUNT>
1

> <PUBCHEM_ATOM_UDEF_STEREO_COUNT>
0

> <PUBCHEM_BOND_DEF_STEREO_COUNT>
0

> <PUBCHEM_BOND_UDEF_STEREO_COUNT>
0

> <PUBCHEM_ISOTOPIC_ATOM_COUNT>
0

> <PUBCHEM_COMPONENT_COUNT>
1

> <PUBCHEM_CACTVS_TAUTO_COUNT>
1

> <PUBCHEM_CONFORMER_ID>
04809A4F00000001

> <PUBCHEM_MMFF94_ENERGY>
45.1247

> <PUBCHEM_FEATURE_SELFOVERLAP>
35.638

> <PUBCHEM_SHAPE_FINGERPRINT>
10498660 4 18272373109145535792
10670039 82 18341058415090560932
11640471 11 18115862074597443178
11796584 16 11599999947256023717
12173636 292 18262233429814986326
12410352 35 10592041353783982997
12596602 18 14562820970676125628
12633257 1 15285360673529991252
12670546 177 17632293509909454525
12824470 246 11023833868231780190
12839892 36 13479140090269003849
12892183 10 13118272703199775534
13828863 39 15431751906710216804
1420 369 9439404626967723508
14251751 18 12966839100967680620
14251764 38 17825663357435774965
14420673 8 11172395443040303656
14528608 73 18342454842139003581
14848178 5 10807932639409309476
15163728 17 18337968856167135894
15188451 53 7997694147173769401
15342168 16 17749113317710177958
15475509 35 9870021815484557205
15475509 8 15482684455189896153
15885798 251 8935002568208581091
17959699 21 18412545409616208576
1813 80 11527952278602557298
18186145 218 17774731956123300074
18222031 100 12035734193082009155
193927 3 10447933901192029968
19784866 240 11743847966548119680
20403669 9 10303816483748806588
20567600 234 16226054418168707885
20626108 58 11527951136389201858
20645477 70 13614515273120825066
20871999 31 17917142926682273183
21033648 29 15791719780991774047
21065199 12 12396564270275984646
21503847 285 17749107747480460258
22079108 93 17385446535725182451
22646028 28 9727635016109559368
23227448 37 18335701688949857229
23366157 5 17982173318927988047
23559900 14 17916584215930723054
2838139 119 18260824912849706892
33382 64 12462990187247319421
3472631 163 18411701031894079852
4028521 119 18200881772243765232
4259306 186 13758082891458018452
4463277 69 11887952146744082952
474 4 17967533471489383034
4990 188 16272200869283031067
57724786 102 17241049916081517204
633830 44 18113335319287983810
7237137 82 18271232937526735463
76465 3 11815907742761691282
7808743 9 18116156760835651188
960060 61 15051733105554630176

> <PUBCHEM_SHAPE_MULTIPOLES>
398.49
11.05
2.42
1.51
2.33
0.06
0.01
8.85
1.92
-0.15
0.58
-0.41
0.1
-0.59

> <PUBCHEM_SHAPE_SELFOVERLAP>
826.163

> <PUBCHEM_SHAPE_VOLUME>
230.4

> <PUBCHEM_COORDINATE_TYPE>
2
5
10

$$$$
