40777165
  -OEChem-12032416183D

 59 63  0     1  0  0  0  0  0999 V2000
    8.5140    0.0160    1.1628 F   0  0  0  0  0  0  0  0  0  0  0  0
    7.6232    1.5587    2.4092 F   0  0  0  0  0  0  0  0  0  0  0  0
    8.3399    2.0442    0.4146 F   0  0  0  0  0  0  0  0  0  0  0  0
   -5.9604    0.1105    2.2698 O   0  0  0  0  0  0  0  0  0  0  0  0
   -5.9755    2.3350   -0.4909 O   0  0  0  0  0  0  0  0  0  0  0  0
   -2.2020   -2.3794    1.4959 N   0  0  2  0  0  0  0  0  0  0  0  0
   -4.2182    0.7305    0.8679 N   0  0  0  0  0  0  0  0  0  0  0  0
    0.0364   -0.6172   -2.0686 N   0  0  0  0  0  0  0  0  0  0  0  0
    2.1355    0.5666   -2.0715 N   0  0  0  0  0  0  0  0  0  0  0  0
   -1.8767   -2.5119   -1.0847 C   0  0  2  0  0  0  0  0  0  0  0  0
   -0.5117   -2.2945   -0.3749 C   0  0  2  0  0  0  0  0  0  0  0  0
   -3.1567   -1.4650    0.8156 C   0  0  2  0  0  0  0  0  0  0  0  0
   -2.8422   -1.3735   -0.6931 C   0  0  0  0  0  0  0  0  0  0  0  0
   -2.4678   -3.8220   -0.5212 C   0  0  0  0  0  0  0  0  0  0  0  0
   -0.8085   -2.0248    1.1279 C   0  0  0  0  0  0  0  0  0  0  0  0
   -2.4713   -3.7561    1.0161 C   0  0  0  0  0  0  0  0  0  0  0  0
   -3.2092   -0.0838    1.4720 C   0  0  0  0  0  0  0  0  0  0  0  0
    0.4509   -1.2741   -0.9655 C   0  0  0  0  0  0  0  0  0  0  0  0
    1.6766   -1.0685   -0.3659 C   0  0  0  0  0  0  0  0  0  0  0  0
    2.4857   -0.1268   -0.9684 C   0  0  0  0  0  0  0  0  0  0  0  0
    0.9155    0.2758   -2.5620 C   0  0  0  0  0  0  0  0  0  0  0  0
   -5.5359    0.7647    1.3210 C   0  0  0  0  0  0  0  0  0  0  0  0
    3.7933    0.1803   -0.4397 C   0  0  0  0  0  0  0  0  0  0  0  0
    0.4936    1.0209   -3.7829 C   0  0  0  0  0  0  0  0  0  0  0  0
   -6.4692    1.6423    0.5690 C   0  0  0  0  0  0  0  0  0  0  0  0
    3.9227    0.6704    0.8598 C   0  0  0  0  0  0  0  0  0  0  0  0
    4.9275   -0.0135   -1.2283 C   0  0  0  0  0  0  0  0  0  0  0  0
   -7.8081    1.9082    0.7386 C   0  0  0  0  0  0  0  0  0  0  0  0
    5.1863    0.9669    1.3707 C   0  0  0  0  0  0  0  0  0  0  0  0
    6.1910    0.2830   -0.7174 C   0  0  0  0  0  0  0  0  0  0  0  0
    6.3205    0.7732    0.5821 C   0  0  0  0  0  0  0  0  0  0  0  0
   -8.1598    2.8228   -0.2826 C   0  0  0  0  0  0  0  0  0  0  0  0
   -7.0104    3.0508   -1.0035 C   0  0  0  0  0  0  0  0  0  0  0  0
    7.6713    1.0904    1.1281 C   0  0  0  0  0  0  0  0  0  0  0  0
   -1.7686   -2.5783   -2.1724 H   0  0  0  0  0  0  0  0  0  0  0  0
    0.0281   -3.2518   -0.4436 H   0  0  0  0  0  0  0  0  0  0  0  0
   -4.1633   -1.8957    0.9249 H   0  0  0  0  0  0  0  0  0  0  0  0
   -3.7733   -1.4681   -1.2656 H   0  0  0  0  0  0  0  0  0  0  0  0
   -2.4020   -0.4058   -0.9577 H   0  0  0  0  0  0  0  0  0  0  0  0
   -3.4887   -3.9623   -0.8967 H   0  0  0  0  0  0  0  0  0  0  0  0
   -1.8776   -4.6833   -0.8554 H   0  0  0  0  0  0  0  0  0  0  0  0
   -0.1190   -2.6187    1.7429 H   0  0  0  0  0  0  0  0  0  0  0  0
   -0.6046   -0.9838    1.4039 H   0  0  0  0  0  0  0  0  0  0  0  0
   -1.7238   -4.4461    1.4281 H   0  0  0  0  0  0  0  0  0  0  0  0
   -3.4370   -4.1054    1.4019 H   0  0  0  0  0  0  0  0  0  0  0  0
   -2.2638    0.4574    1.3644 H   0  0  0  0  0  0  0  0  0  0  0  0
   -3.4191   -0.1800    2.5436 H   0  0  0  0  0  0  0  0  0  0  0  0
   -3.9595    1.3003    0.0673 H   0  0  0  0  0  0  0  0  0  0  0  0
    1.9851   -1.6210    0.5139 H   0  0  0  0  0  0  0  0  0  0  0  0
    0.9145    2.0312   -3.7850 H   0  0  0  0  0  0  0  0  0  0  0  0
   -0.5964    1.1076   -3.8293 H   0  0  0  0  0  0  0  0  0  0  0  0
    0.8417    0.4935   -4.6758 H   0  0  0  0  0  0  0  0  0  0  0  0
    3.0509    0.8337    1.4892 H   0  0  0  0  0  0  0  0  0  0  0  0
    4.8470   -0.3982   -2.2423 H   0  0  0  0  0  0  0  0  0  0  0  0
   -8.4543    1.4967    1.5009 H   0  0  0  0  0  0  0  0  0  0  0  0
    5.2655    1.3488    2.3847 H   0  0  0  0  0  0  0  0  0  0  0  0
    7.0690    0.1282   -1.3389 H   0  0  0  0  0  0  0  0  0  0  0  0
   -9.1293    3.2611   -0.4700 H   0  0  0  0  0  0  0  0  0  0  0  0
   -6.7758    3.6617   -1.8629 H   0  0  0  0  0  0  0  0  0  0  0  0
  1 34  1  0  0  0  0
  2 34  1  0  0  0  0
  3 34  1  0  0  0  0
  4 22  2  0  0  0  0
  5 25  1  0  0  0  0
  5 33  1  0  0  0  0
  6 12  1  0  0  0  0
  6 15  1  0  0  0  0
  6 16  1  0  0  0  0
  7 17  1  0  0  0  0
  7 22  1  0  0  0  0
  7 48  1  0  0  0  0
  8 18  2  0  0  0  0
  8 21  1  0  0  0  0
  9 20  1  0  0  0  0
  9 21  2  0  0  0  0
 10 11  1  0  0  0  0
 10 13  1  0  0  0  0
 10 14  1  0  0  0  0
 10 35  1  0  0  0  0
 11 15  1  0  0  0  0
 11 18  1  0  0  0  0
 11 36  1  0  0  0  0
 12 13  1  0  0  0  0
 12 17  1  0  0  0  0
 12 37  1  0  0  0  0
 13 38  1  0  0  0  0
 13 39  1  0  0  0  0
 14 16  1  0  0  0  0
 14 40  1  0  0  0  0
 14 41  1  0  0  0  0
 15 42  1  0  0  0  0
 15 43  1  0  0  0  0
 16 44  1  0  0  0  0
 16 45  1  0  0  0  0
 17 46  1  0  0  0  0
 17 47  1  0  0  0  0
 18 19  1  0  0  0  0
 19 20  2  0  0  0  0
 19 49  1  0  0  0  0
 20 23  1  0  0  0  0
 21 24  1  0  0  0  0
 22 25  1  0  0  0  0
 23 26  2  0  0  0  0
 23 27  1  0  0  0  0
 24 50  1  0  0  0  0
 24 51  1  0  0  0  0
 24 52  1  0  0  0  0
 25 28  2  0  0  0  0
 26 29  1  0  0  0  0
 26 53  1  0  0  0  0
 27 30  2  0  0  0  0
 27 54  1  0  0  0  0
 28 32  1  0  0  0  0
 28 55  1  0  0  0  0
 29 31  2  0  0  0  0
 29 56  1  0  0  0  0
 30 31  1  0  0  0  0
 30 57  1  0  0  0  0
 31 34  1  0  0  0  0
 32 33  2  0  0  0  0
 32 58  1  0  0  0  0
 33 59  1  0  0  0  0
M  END
> <PUBCHEM_COMPOUND_CID>
40777165

> <PUBCHEM_CONFORMER_RMSD>
1

> <PUBCHEM_CONFORMER_DIVERSEORDER>
1
34
58
43
51
46
63
57
38
45
15
31
61
59
17
18
33
12
44
62
52
10
49
28
42
21
56
22
9
7
40
48
54
2
50
24
25
26
32
39
60
3
36
29
47
41
11
53
5
4
37
19
23
14
13
20
8
16
35
55
30
6
27

> <PUBCHEM_MMFF94_PARTIAL_CHARGES>
39
1 -0.34
11 0.14
12 0.27
15 0.27
16 0.27
17 0.3
18 0.17
19 -0.15
2 -0.34
20 0.31
21 0.48
22 0.71
24 0.14
25 0.05
26 -0.15
27 -0.15
28 -0.15
29 -0.15
3 -0.34
30 -0.15
31 -0.14
32 -0.15
33 -0.01
34 1.16
4 -0.57
48 0.37
49 0.15
5 -0.28
53 0.15
54 0.15
55 0.15
56 0.15
57 0.15
58 0.15
59 0.15
6 -0.81
7 -0.73
8 -0.62
9 -0.62

> <PUBCHEM_EFFECTIVE_ROTOR_COUNT>
8.2

> <PUBCHEM_PHARMACOPHORE_FEATURES>
10
1 4 acceptor
1 5 acceptor
1 6 cation
1 7 donor
1 8 acceptor
3 8 9 21 cation
5 5 25 28 32 33 rings
6 23 26 27 29 30 31 rings
6 8 9 18 19 20 21 rings
8 6 10 11 12 13 14 15 16 rings

> <PUBCHEM_HEAVY_ATOM_COUNT>
34

> <PUBCHEM_ATOM_DEF_STEREO_COUNT>
3

> <PUBCHEM_ATOM_UDEF_STEREO_COUNT>
0

> <PUBCHEM_BOND_DEF_STEREO_COUNT>
0

> <PUBCHEM_BOND_UDEF_STEREO_COUNT>
0

> <PUBCHEM_ISOTOPIC_ATOM_COUNT>
0

> <PUBCHEM_COMPONENT_COUNT>
1

> <PUBCHEM_CACTVS_TAUTO_COUNT>
2

> <PUBCHEM_CONFORMER_ID>
026E35CD00000001

> <PUBCHEM_MMFF94_ENERGY>
77.3233

> <PUBCHEM_FEATURE_SELFOVERLAP>
50.747

> <PUBCHEM_SHAPE_FINGERPRINT>
10190108 129 16298666093290039344
10554248 39 15338856244033612124
10939801 23 17313684714099105860
11374522 101 18339644555476491944
11399510 152 15939827433829256401
11973864 196 14978808053119756144
12107183 9 17168154463405958165
12539747 363 13406799917004697679
13103583 49 16371017338014923835
13383668 40 18338798885338180206
13631057 29 10879995744058855935
13673619 4 12179847212225721535
13782708 43 12901827276166545672
13911987 19 14836132069476759630
14040221 275 13913437176404379373
14040221 310 12535350112607855423
14767858 380 13686299062925022415
14950920 106 16371871701910601779
15350500 185 18341326717750532881
15669420 48 16630522947838374645
15684973 49 18193568980464104246
15721738 202 10881691212690900902
19246450 95 16950556645988721301
19315958 150 18408606925096413026
20567600 254 18340210700668446209
21033648 29 18335425646938133399
21304303 282 18341609352659188055
21585482 111 17916017044942510784
21859007 373 18115877291355233191
23522609 53 16806754921510702582
2838139 119 17346328037864736385
393628 179 18343014467899274609
393628 194 17846227656791673377
397638 26 18334296452791433105
4330586 98 13901321816328169133
4366758 6 18409448051628688237
4461854 278 13118291364870328648
4938544 92 18342458200792938086
5104073 3 17678464284346494110
5372103 7 17703507710448263705
54039377 194 8286192868560651649
58083652 198 16226604216731789942
6009941 240 18342738550894289138
6058803 2 16954808654410268031
6691757 9 18040986367521923015
6697151 62 17056708914340817630
999808 66 12973601144738642609

> <PUBCHEM_SHAPE_MULTIPOLES>
646.22
23.62
3.56
2.42
11.32
2.42
1.49
-27.19
-12.64
-7.28
-0.09
1.33
-0.66
1.91

> <PUBCHEM_SHAPE_SELFOVERLAP>
1416.291

> <PUBCHEM_SHAPE_VOLUME>
349.9

> <PUBCHEM_COORDINATE_TYPE>
2
5
10

$$$$
