28962427
  -OEChem-12032416203D

 65 67  0     1  0  0  0  0  0999 V2000
    3.3154    1.7653   -2.5722 Cl  0  0  0  0  0  0  0  0  0  0  0  0
   -1.1175   -2.2815   -1.4680 O   0  0  0  0  0  0  0  0  0  0  0  0
    3.7092   -2.4394    0.8231 O   0  0  0  0  0  0  0  0  0  0  0  0
   -6.3727    2.1780   -1.1753 O   0  0  0  0  0  0  0  0  0  0  0  0
   -5.6632    0.2850   -0.0218 N   0  0  0  0  0  0  0  0  0  0  0  0
    3.2735   -1.2830   -1.1398 N   0  0  0  0  0  0  0  0  0  0  0  0
   -1.5457    0.3825    1.2328 C   0  0  1  0  0  0  0  0  0  0  0  0
   -1.8772   -0.4484   -0.0512 C   0  0  2  0  0  0  0  0  0  0  0  0
   -3.4134   -0.7673   -0.1295 C   0  0  1  0  0  0  0  0  0  0  0  0
   -0.9318   -1.6765   -0.1876 C   0  0  2  0  0  0  0  0  0  0  0  0
   -0.0495    0.7754    1.2212 C   0  0  0  0  0  0  0  0  0  0  0  0
   -2.3749    1.6875    1.2170 C   0  0  0  0  0  0  0  0  0  0  0  0
    0.5626   -1.2899   -0.0940 C   0  0  1  0  0  0  0  0  0  0  0  0
   -4.2402    0.5478   -0.0689 C   0  0  2  0  0  0  0  0  0  0  0  0
    0.8800   -0.4274    1.1275 C   0  0  0  0  0  0  0  0  0  0  0  0
   -3.8735    1.4420    1.1152 C   0  0  0  0  0  0  0  0  0  0  0  0
   -1.8456   -0.3966    2.5385 C   0  0  0  0  0  0  0  0  0  0  0  0
    1.4714   -2.5252   -0.0991 C   0  0  2  0  0  0  0  0  0  0  0  0
   -3.8147   -1.5595   -1.3853 C   0  0  0  0  0  0  0  0  0  0  0  0
    1.1325   -3.4310    1.0796 C   0  0  0  0  0  0  0  0  0  0  0  0
    2.9345   -2.0944   -0.0668 C   0  0  0  0  0  0  0  0  0  0  0  0
   -6.6054    1.1281   -0.5820 C   0  0  0  0  0  0  0  0  0  0  0  0
   -8.0069    0.6057   -0.4119 C   0  0  0  0  0  0  0  0  0  0  0  0
    4.6023   -0.7479   -1.3255 C   0  0  0  0  0  0  0  0  0  0  0  0
    4.7843    0.5630   -0.6165 C   0  0  0  0  0  0  0  0  0  0  0  0
    4.2359    1.7457   -1.1121 C   0  0  0  0  0  0  0  0  0  0  0  0
    5.5235    0.5789    0.5663 C   0  0  0  0  0  0  0  0  0  0  0  0
    4.4266    2.9446   -0.4251 C   0  0  0  0  0  0  0  0  0  0  0  0
    5.7144    1.7778    1.2534 C   0  0  0  0  0  0  0  0  0  0  0  0
    5.1659    2.9606    0.7577 C   0  0  0  0  0  0  0  0  0  0  0  0
   -1.6677    0.1937   -0.9219 H   0  0  0  0  0  0  0  0  0  0  0  0
   -3.6894   -1.3941    0.7280 H   0  0  0  0  0  0  0  0  0  0  0  0
   -1.2274   -2.4098    0.5647 H   0  0  0  0  0  0  0  0  0  0  0  0
    0.1993    1.3516    2.1217 H   0  0  0  0  0  0  0  0  0  0  0  0
    0.1522    1.4386    0.3691 H   0  0  0  0  0  0  0  0  0  0  0  0
   -2.0675    2.3094    0.3654 H   0  0  0  0  0  0  0  0  0  0  0  0
   -2.1697    2.2793    2.1181 H   0  0  0  0  0  0  0  0  0  0  0  0
    0.7809   -0.6836   -0.9833 H   0  0  0  0  0  0  0  0  0  0  0  0
   -4.0404    1.1157   -0.9882 H   0  0  0  0  0  0  0  0  0  0  0  0
    1.9052   -0.0425    1.0773 H   0  0  0  0  0  0  0  0  0  0  0  0
    0.8145   -0.9831    2.0652 H   0  0  0  0  0  0  0  0  0  0  0  0
   -4.2481    1.0055    2.0492 H   0  0  0  0  0  0  0  0  0  0  0  0
   -4.3842    2.4093    1.0220 H   0  0  0  0  0  0  0  0  0  0  0  0
   -2.9048   -0.6402    2.6536 H   0  0  0  0  0  0  0  0  0  0  0  0
   -1.5581    0.1959    3.4150 H   0  0  0  0  0  0  0  0  0  0  0  0
   -1.3027   -1.3441    2.5951 H   0  0  0  0  0  0  0  0  0  0  0  0
    1.3290   -3.0947   -1.0265 H   0  0  0  0  0  0  0  0  0  0  0  0
   -3.4284   -1.0865   -2.2940 H   0  0  0  0  0  0  0  0  0  0  0  0
   -4.9017   -1.6384   -1.4896 H   0  0  0  0  0  0  0  0  0  0  0  0
   -3.4519   -2.5899   -1.3347 H   0  0  0  0  0  0  0  0  0  0  0  0
   -5.9795   -0.5288    0.4983 H   0  0  0  0  0  0  0  0  0  0  0  0
   -0.9112   -1.6185   -2.1487 H   0  0  0  0  0  0  0  0  0  0  0  0
    1.2704   -2.9649    2.0580 H   0  0  0  0  0  0  0  0  0  0  0  0
    1.8085   -4.2963    1.0719 H   0  0  0  0  0  0  0  0  0  0  0  0
    0.1262   -3.8517    1.0231 H   0  0  0  0  0  0  0  0  0  0  0  0
    2.5892   -1.0864   -1.8629 H   0  0  0  0  0  0  0  0  0  0  0  0
   -8.2111    0.4183    0.6462 H   0  0  0  0  0  0  0  0  0  0  0  0
   -8.7235    1.3434   -0.7834 H   0  0  0  0  0  0  0  0  0  0  0  0
   -8.1240   -0.3232   -0.9767 H   0  0  0  0  0  0  0  0  0  0  0  0
    4.7829   -0.6430   -2.4009 H   0  0  0  0  0  0  0  0  0  0  0  0
    5.3305   -1.4864   -0.9684 H   0  0  0  0  0  0  0  0  0  0  0  0
    5.9565   -0.3334    0.9680 H   0  0  0  0  0  0  0  0  0  0  0  0
    4.0056    3.8749   -0.7978 H   0  0  0  0  0  0  0  0  0  0  0  0
    6.2895    1.7903    2.1746 H   0  0  0  0  0  0  0  0  0  0  0  0
    5.3144    3.8939    1.2930 H   0  0  0  0  0  0  0  0  0  0  0  0
  1 26  1  0  0  0  0
  2 10  1  0  0  0  0
  2 52  1  0  0  0  0
  3 21  2  0  0  0  0
  4 22  2  0  0  0  0
  5 14  1  0  0  0  0
  5 22  1  0  0  0  0
  5 51  1  0  0  0  0
  6 21  1  0  0  0  0
  6 24  1  0  0  0  0
  6 56  1  0  0  0  0
  7  8  1  0  0  0  0
  7 11  1  0  0  0  0
  7 12  1  0  0  0  0
  7 17  1  0  0  0  0
  8  9  1  0  0  0  0
  8 10  1  0  0  0  0
  8 31  1  0  0  0  0
  9 14  1  0  0  0  0
  9 19  1  0  0  0  0
  9 32  1  0  0  0  0
 10 13  1  0  0  0  0
 10 33  1  0  0  0  0
 11 15  1  0  0  0  0
 11 34  1  0  0  0  0
 11 35  1  0  0  0  0
 12 16  1  0  0  0  0
 12 36  1  0  0  0  0
 12 37  1  0  0  0  0
 13 15  1  0  0  0  0
 13 18  1  0  0  0  0
 13 38  1  0  0  0  0
 14 16  1  0  0  0  0
 14 39  1  0  0  0  0
 15 40  1  0  0  0  0
 15 41  1  0  0  0  0
 16 42  1  0  0  0  0
 16 43  1  0  0  0  0
 17 44  1  0  0  0  0
 17 45  1  0  0  0  0
 17 46  1  0  0  0  0
 18 20  1  0  0  0  0
 18 21  1  0  0  0  0
 18 47  1  0  0  0  0
 19 48  1  0  0  0  0
 19 49  1  0  0  0  0
 19 50  1  0  0  0  0
 20 53  1  0  0  0  0
 20 54  1  0  0  0  0
 20 55  1  0  0  0  0
 22 23  1  0  0  0  0
 23 57  1  0  0  0  0
 23 58  1  0  0  0  0
 23 59  1  0  0  0  0
 24 25  1  0  0  0  0
 24 60  1  0  0  0  0
 24 61  1  0  0  0  0
 25 26  1  0  0  0  0
 25 27  2  0  0  0  0
 26 28  2  0  0  0  0
 27 29  1  0  0  0  0
 27 62  1  0  0  0  0
 28 30  1  0  0  0  0
 28 63  1  0  0  0  0
 29 30  2  0  0  0  0
 29 64  1  0  0  0  0
 30 65  1  0  0  0  0
M  END
> <PUBCHEM_COMPOUND_CID>
28962427

> <PUBCHEM_CONFORMER_RMSD>
1

> <PUBCHEM_CONFORMER_DIVERSEORDER>
1
14
78
104
148
159
89
101
38
98
137
40
158
147
107
88
83
13
73
139
22
61
93
121
132
118
156
84
70
37
20
33
48
87
85
44
90
11
115
157
72
91
65
66
125
10
42
126
43
155
96
109
161
26
163
142
128
79
144
28
16
145
150
63
62
46
116
56
160
103
81
55
153
122
141
6
140
92
51
120
164
97
2
102
68
131
112
54
58
8
111
106
52
146
71
105
74
4
31
149
18
110
50
45
129
64
53
154
95
60
67
7
124
34
36
27
138
5
114
134
29
77
113
9
35
75
108
17
80
151
57
32
49
136
135
99
23
100
119
69
94
152
162
82
3
133
41
12
127
39
143
21
117
25
86
130
59
47
15
24
30
76
19
123

> <PUBCHEM_MMFF94_PARTIAL_CHARGES>
26
1 -0.18
10 0.28
14 0.3
18 0.06
2 -0.68
21 0.57
22 0.57
23 0.06
24 0.44
25 -0.14
26 0.18
27 -0.15
28 -0.15
29 -0.15
3 -0.57
30 -0.15
4 -0.57
5 -0.73
51 0.37
52 0.4
56 0.37
6 -0.73
62 0.15
63 0.15
64 0.15
65 0.15

> <PUBCHEM_EFFECTIVE_ROTOR_COUNT>
8.6

> <PUBCHEM_PHARMACOPHORE_FEATURES>
10
1 2 acceptor
1 2 donor
1 20 hydrophobe
1 3 acceptor
1 4 acceptor
1 5 donor
1 6 donor
6 25 26 27 28 29 30 rings
6 7 8 10 11 13 15 rings
6 7 8 9 12 14 16 rings

> <PUBCHEM_HEAVY_ATOM_COUNT>
30

> <PUBCHEM_ATOM_DEF_STEREO_COUNT>
7

> <PUBCHEM_ATOM_UDEF_STEREO_COUNT>
0

> <PUBCHEM_BOND_DEF_STEREO_COUNT>
0

> <PUBCHEM_BOND_UDEF_STEREO_COUNT>
0

> <PUBCHEM_ISOTOPIC_ATOM_COUNT>
0

> <PUBCHEM_COMPONENT_COUNT>
1

> <PUBCHEM_CACTVS_TAUTO_COUNT>
4

> <PUBCHEM_CONFORMER_ID>
01B9EE7B00000001

> <PUBCHEM_MMFF94_ENERGY>
82.4411

> <PUBCHEM_FEATURE_SELFOVERLAP>
50.76

> <PUBCHEM_SHAPE_FINGERPRINT>
10673678 19 18413107238989432351
10692045 39 14707197782400094649
10928967 22 10231492756900915332
11135609 187 18198621223350239560
11211813 74 18411133598955312677
12166972 35 18056758733184535682
12403259 327 15430323585371438616
12422481 6 17530677714928516780
12633257 1 16009036124218439398
12788726 201 17560804278132613825
13150687 139 17989213651078641350
13617811 41 18343293782560098601
14068700 675 17843689864264711218
14117953 113 18410295831140002964
14289278 72 13696412302205340718
14790565 3 17700995266059096617
14931854 50 17988656228632532908
15082195 135 18053375510067376089
15183329 4 18202289108510172777
15840311 113 18410293580291517373
19319366 153 18340482288230476271
20157964 124 18409450267103955568
20511986 3 18272359897541238540
20715895 44 18409727391859122044
21033648 29 16732994119114462742
21049683 118 17968648415241070946
21298829 104 18336543910594051628
21521721 280 18412550890828129899
21792934 111 12179836170909068135
23522609 53 17488764293650815753
23559900 14 17532107024342140146
23569914 2 17100260664395931413
2838139 119 18187919595425989037
3117164 225 11386353851157521838
3472631 163 18272933842885276638
34797466 226 17275109418142910845
4149490 64 18333167258835131275
44317340 157 18412550907280095903
474 4 18261401052779419858
5372103 7 15409748463331089016
6034566 193 17681856307778043700
7237137 82 17917709158333476791
9981440 41 18197777915945073906

> <PUBCHEM_SHAPE_MULTIPOLES>
591.69
16.31
3.35
1.8
15.83
0.92
-0.07
-12.44
-3.76
-3.47
0
-0.56
-0.35
-0.15

> <PUBCHEM_SHAPE_SELFOVERLAP>
1222.465

> <PUBCHEM_SHAPE_VOLUME>
337.4

> <PUBCHEM_COORDINATE_TYPE>
2
5
10

$$$$
