75536888
  -OEChem-12032416333D

 40 41  0     1  0  0  0  0  0999 V2000
   -4.8548    0.5403    0.3530 S   0  0  0  0  0  0  0  0  0  0  0  0
    3.2790   -1.9980    1.2591 O   0  0  0  0  0  0  0  0  0  0  0  0
    0.5440   -1.3452   -1.1118 O   0  0  0  0  0  0  0  0  0  0  0  0
    2.4053    2.6826   -0.8139 O   0  0  0  0  0  0  0  0  0  0  0  0
   -5.0286    1.8995   -0.1408 O   0  0  0  0  0  0  0  0  0  0  0  0
   -5.8076   -0.4935   -0.0255 O   0  0  0  0  0  0  0  0  0  0  0  0
    3.4430    0.6973   -0.1605 N   0  0  0  0  0  0  0  0  0  0  0  0
    1.6080   -0.9765   -0.2357 C   0  0  2  0  0  0  0  0  0  0  0  0
    2.5939   -0.1202   -1.0300 C   0  0  0  0  0  0  0  0  0  0  0  0
    2.2352   -2.2492    0.3273 C   0  0  0  0  0  0  0  0  0  0  0  0
    4.4590    0.0367    0.6704 C   0  0  0  0  0  0  0  0  0  0  0  0
    4.4653   -1.4862    0.6605 C   0  0  0  0  0  0  0  0  0  0  0  0
    3.2447    2.0859   -0.1351 C   0  0  0  0  0  0  0  0  0  0  0  0
   -0.7063   -0.9085   -0.7716 C   0  0  0  0  0  0  0  0  0  0  0  0
    4.1313    2.8714    0.8024 C   0  0  0  0  0  0  0  0  0  0  0  0
   -0.9624    0.4584   -0.6632 C   0  0  0  0  0  0  0  0  0  0  0  0
   -1.7260   -1.8300   -0.5332 C   0  0  0  0  0  0  0  0  0  0  0  0
   -3.2573   -0.0179   -0.0777 C   0  0  0  0  0  0  0  0  0  0  0  0
   -2.2378    0.9038   -0.3162 C   0  0  0  0  0  0  0  0  0  0  0  0
   -3.0014   -1.3848   -0.1862 C   0  0  0  0  0  0  0  0  0  0  0  0
   -4.8266    0.6343    2.1288 C   0  0  0  0  0  0  0  0  0  0  0  0
    1.2395   -0.3866    0.6162 H   0  0  0  0  0  0  0  0  0  0  0  0
    3.2326   -0.7298   -1.6799 H   0  0  0  0  0  0  0  0  0  0  0  0
    2.0398    0.5325   -1.7142 H   0  0  0  0  0  0  0  0  0  0  0  0
    1.4625   -2.8205    0.8554 H   0  0  0  0  0  0  0  0  0  0  0  0
    2.5895   -2.9104   -0.4740 H   0  0  0  0  0  0  0  0  0  0  0  0
    4.3099    0.3821    1.6995 H   0  0  0  0  0  0  0  0  0  0  0  0
    5.4357    0.4010    0.3328 H   0  0  0  0  0  0  0  0  0  0  0  0
    4.6312   -1.9063   -0.3379 H   0  0  0  0  0  0  0  0  0  0  0  0
    5.2989   -1.8268    1.2848 H   0  0  0  0  0  0  0  0  0  0  0  0
   -0.1829    1.1903   -0.8531 H   0  0  0  0  0  0  0  0  0  0  0  0
   -1.5314   -2.8960   -0.6144 H   0  0  0  0  0  0  0  0  0  0  0  0
    5.1857    2.6866    0.5837 H   0  0  0  0  0  0  0  0  0  0  0  0
    3.9063    2.6122    1.8399 H   0  0  0  0  0  0  0  0  0  0  0  0
    3.9414    3.9410    0.6683 H   0  0  0  0  0  0  0  0  0  0  0  0
   -2.4141    1.9725   -0.2334 H   0  0  0  0  0  0  0  0  0  0  0  0
   -3.7782   -2.1205    0.0017 H   0  0  0  0  0  0  0  0  0  0  0  0
   -5.8076    0.9763    2.4657 H   0  0  0  0  0  0  0  0  0  0  0  0
   -4.6195   -0.3582    2.5336 H   0  0  0  0  0  0  0  0  0  0  0  0
   -4.0584    1.3469    2.4349 H   0  0  0  0  0  0  0  0  0  0  0  0
  1  5  2  0  0  0  0
  1  6  2  0  0  0  0
  1 18  1  0  0  0  0
  1 21  1  0  0  0  0
  2 10  1  0  0  0  0
  2 12  1  0  0  0  0
  3  8  1  0  0  0  0
  3 14  1  0  0  0  0
  4 13  2  0  0  0  0
  7  9  1  0  0  0  0
  7 11  1  0  0  0  0
  7 13  1  0  0  0  0
  8  9  1  0  0  0  0
  8 10  1  0  0  0  0
  8 22  1  0  0  0  0
  9 23  1  0  0  0  0
  9 24  1  0  0  0  0
 10 25  1  0  0  0  0
 10 26  1  0  0  0  0
 11 12  1  0  0  0  0
 11 27  1  0  0  0  0
 11 28  1  0  0  0  0
 12 29  1  0  0  0  0
 12 30  1  0  0  0  0
 13 15  1  0  0  0  0
 14 16  2  0  0  0  0
 14 17  1  0  0  0  0
 15 33  1  0  0  0  0
 15 34  1  0  0  0  0
 15 35  1  0  0  0  0
 16 19  1  0  0  0  0
 16 31  1  0  0  0  0
 17 20  2  0  0  0  0
 17 32  1  0  0  0  0
 18 19  2  0  0  0  0
 18 20  1  0  0  0  0
 19 36  1  0  0  0  0
 20 37  1  0  0  0  0
 21 38  1  0  0  0  0
 21 39  1  0  0  0  0
 21 40  1  0  0  0  0
M  END
> <PUBCHEM_COMPOUND_CID>
75536888

> <PUBCHEM_CONFORMER_RMSD>
0.8

> <PUBCHEM_CONFORMER_DIVERSEORDER>
2
75
38
82
24
35
102
58
86
90
12
57
94
7
93
56
88
70
74
26
63
31
49
89
95
72
65
37
5
92
48
101
97
98
14
80
23
73
71
32
18
62
78
81
43
8
83
10
46
100
30
55
66
84
44
33
67
36
54
4
47
64
69
9
52
87
79
6
15
3
103
34
53
85
1
27
61
45
41
76
16
77
25
39
99
96
60
51
40
22
29
91
17
13
19
42
28
21
68
20
50
59
11

> <PUBCHEM_MMFF94_PARTIAL_CHARGES>
25
1 1.2
10 0.28
11 0.3
12 0.28
13 0.57
14 0.08
15 0.06
16 -0.15
17 -0.15
18 -0.01
19 -0.15
2 -0.56
20 -0.15
21 0.11
3 -0.36
31 0.15
32 0.15
36 0.15
37 0.15
4 -0.57
5 -0.65
6 -0.65
7 -0.66
8 0.28
9 0.3

> <PUBCHEM_EFFECTIVE_ROTOR_COUNT>
5.4

> <PUBCHEM_PHARMACOPHORE_FEATURES>
7
1 2 acceptor
1 3 acceptor
1 4 acceptor
1 5 acceptor
1 6 acceptor
6 14 16 17 18 19 20 rings
7 2 7 8 9 10 11 12 rings

> <PUBCHEM_HEAVY_ATOM_COUNT>
21

> <PUBCHEM_ATOM_DEF_STEREO_COUNT>
1

> <PUBCHEM_ATOM_UDEF_STEREO_COUNT>
0

> <PUBCHEM_BOND_DEF_STEREO_COUNT>
0

> <PUBCHEM_BOND_UDEF_STEREO_COUNT>
0

> <PUBCHEM_ISOTOPIC_ATOM_COUNT>
0

> <PUBCHEM_COMPONENT_COUNT>
1

> <PUBCHEM_CACTVS_TAUTO_COUNT>
1

> <PUBCHEM_CONFORMER_ID>
048099F800000002

> <PUBCHEM_MMFF94_ENERGY>
58.2701

> <PUBCHEM_FEATURE_SELFOVERLAP>
35.542

> <PUBCHEM_SHAPE_FINGERPRINT>
10366900 7 17822021869381595242
11045977 3 17895199883027276147
11724838 91 18271237309186283455
12251169 10 18408881806844910150
12403259 118 18270955744331478233
12633257 1 18113886183203298146
12644460 14 18407763629399658730
12670546 177 11743832552031748643
12788726 201 17489880322984587185
13140716 1 18410289241952866494
13533116 47 18113333085704646907
13583140 156 17895185555158807807
13675066 3 17603871079035037687
14251764 75 18127420153065284536
14341114 176 18408887308945630690
14739800 52 17773864462886989584
14849402 71 18335418032794931032
15196674 1 18341330101577802036
15475509 84 18192983821587716200
19050596 39 18407757053667942166
20715895 44 18053381003446891089
21033648 29 17386271139201986509
21503847 285 18341898498108884750
22950370 63 8286193968731376349
23503953 91 18341603811280327018
23559900 14 17916599643183835686
268830 7 18411974767703317071
2838139 119 15982828255944558144
3680242 22 18341618070481722048
38570 142 18192452950855844220
4259306 186 8142080932249545395
474 4 18189335843490169652
5104073 3 18410013273076796107
633830 44 18272651285555851486
7097593 13 18190449485666331570
960060 61 8718824275783333051

> <PUBCHEM_SHAPE_MULTIPOLES>
401.69
12.13
2.7
1.18
8.35
1.08
-0.43
3.88
-4.09
-3.16
-0.18
0.38
0.04
-0.89

> <PUBCHEM_SHAPE_SELFOVERLAP>
816.389

> <PUBCHEM_SHAPE_VOLUME>
234

> <PUBCHEM_COORDINATE_TYPE>
2
5
10

$$$$
