11882875
  -OEChem-12032416353D

 49 53  0     1  0  0  0  0  0999 V2000
    7.5950    0.7270    1.0342 S   0  0  0  0  0  0  0  0  0  0  0  0
    1.1079    2.6004   -0.5108 O   0  0  0  0  0  0  0  0  0  0  0  0
   -1.9052   -1.2728   -2.2769 O   0  0  0  0  0  0  0  0  0  0  0  0
    4.9262    1.5112    0.0409 O   0  0  0  0  0  0  0  0  0  0  0  0
   -6.9146    0.1165    1.2117 O   0  0  0  0  0  0  0  0  0  0  0  0
   -0.0927   -0.3676   -1.1429 N   0  0  0  0  0  0  0  0  0  0  0  0
    4.0841   -0.6039   -0.2674 N   0  0  0  0  0  0  0  0  0  0  0  0
   -1.1392    2.2577   -0.2675 N   0  0  0  0  0  0  0  0  0  0  0  0
    0.3920    0.3589    0.0238 C   0  0  1  0  0  0  0  0  0  0  0  0
    2.7904   -0.1616   -0.7305 C   0  0  2  0  0  0  0  0  0  0  0  0
    1.8263    0.0146    0.4421 C   0  0  0  0  0  0  0  0  0  0  0  0
    2.2008   -1.1564   -1.7247 C   0  0  0  0  0  0  0  0  0  0  0  0
    0.8499   -0.6703   -2.2228 C   0  0  0  0  0  0  0  0  0  0  0  0
    0.1739    1.8263   -0.2988 C   0  0  0  0  0  0  0  0  0  0  0  0
   -1.4540   -0.5797   -1.3640 C   0  0  0  0  0  0  0  0  0  0  0  0
   -2.4353    0.1255   -0.4970 C   0  0  0  0  0  0  0  0  0  0  0  0
   -2.3035    1.4716   -0.1085 C   0  0  0  0  0  0  0  0  0  0  0  0
    5.0897    0.2910    0.0962 C   0  0  0  0  0  0  0  0  0  0  0  0
   -3.6383   -0.5555   -0.2435 C   0  0  0  0  0  0  0  0  0  0  0  0
   -3.4073    2.1231    0.4658 C   0  0  0  0  0  0  0  0  0  0  0  0
   -4.7063    0.0940    0.3737 C   0  0  0  0  0  0  0  0  0  0  0  0
   -4.5958    1.4368    0.7158 C   0  0  0  0  0  0  0  0  0  0  0  0
    6.3399   -0.3124    0.5788 C   0  0  0  0  0  0  0  0  0  0  0  0
   -5.9339   -0.6183    0.6317 C   0  0  0  0  0  0  0  0  0  0  0  0
    6.6208   -1.6279    0.7083 C   0  0  0  0  0  0  0  0  0  0  0  0
   -6.3460   -1.9078    0.4182 C   0  0  0  0  0  0  0  0  0  0  0  0
    7.9414   -1.8124    1.2104 C   0  0  0  0  0  0  0  0  0  0  0  0
    8.5832   -0.6138    1.4315 C   0  0  0  0  0  0  0  0  0  0  0  0
   -7.6751   -1.9755    0.8999 C   0  0  0  0  0  0  0  0  0  0  0  0
   -7.9745   -0.7187    1.3721 C   0  0  0  0  0  0  0  0  0  0  0  0
   -0.2416    0.1155    0.8867 H   0  0  0  0  0  0  0  0  0  0  0  0
    2.9244    0.8022   -1.2364 H   0  0  0  0  0  0  0  0  0  0  0  0
    2.2109    0.7694    1.1398 H   0  0  0  0  0  0  0  0  0  0  0  0
    1.7970   -0.9278    1.0079 H   0  0  0  0  0  0  0  0  0  0  0  0
    2.0871   -2.1403   -1.2510 H   0  0  0  0  0  0  0  0  0  0  0  0
    2.8804   -1.2928   -2.5745 H   0  0  0  0  0  0  0  0  0  0  0  0
    0.9716    0.2529   -2.8027 H   0  0  0  0  0  0  0  0  0  0  0  0
    0.4189   -1.4140   -2.9015 H   0  0  0  0  0  0  0  0  0  0  0  0
    4.2192   -1.6030   -0.1602 H   0  0  0  0  0  0  0  0  0  0  0  0
   -1.2735    3.2659   -0.2578 H   0  0  0  0  0  0  0  0  0  0  0  0
   -3.7349   -1.5946   -0.5526 H   0  0  0  0  0  0  0  0  0  0  0  0
   -3.3411    3.1706    0.7537 H   0  0  0  0  0  0  0  0  0  0  0  0
   -5.4093    1.9863    1.1824 H   0  0  0  0  0  0  0  0  0  0  0  0
    5.9619   -2.4527    0.4734 H   0  0  0  0  0  0  0  0  0  0  0  0
   -5.7781   -2.7132   -0.0255 H   0  0  0  0  0  0  0  0  0  0  0  0
    8.3977   -2.7754    1.3998 H   0  0  0  0  0  0  0  0  0  0  0  0
    9.5852   -0.4614    1.8072 H   0  0  0  0  0  0  0  0  0  0  0  0
   -8.3325   -2.8329    0.9027 H   0  0  0  0  0  0  0  0  0  0  0  0
   -8.8503   -0.2802    1.8277 H   0  0  0  0  0  0  0  0  0  0  0  0
  1 23  1  0  0  0  0
  1 28  1  0  0  0  0
  2 14  2  0  0  0  0
  3 15  2  0  0  0  0
  4 18  2  0  0  0  0
  5 24  1  0  0  0  0
  5 30  1  0  0  0  0
  6  9  1  0  0  0  0
  6 13  1  0  0  0  0
  6 15  1  0  0  0  0
  7 10  1  0  0  0  0
  7 18  1  0  0  0  0
  7 39  1  0  0  0  0
  8 14  1  0  0  0  0
  8 17  1  0  0  0  0
  8 40  1  0  0  0  0
  9 11  1  0  0  0  0
  9 14  1  0  0  0  0
  9 31  1  0  0  0  0
 10 11  1  0  0  0  0
 10 12  1  0  0  0  0
 10 32  1  0  0  0  0
 11 33  1  0  0  0  0
 11 34  1  0  0  0  0
 12 13  1  0  0  0  0
 12 35  1  0  0  0  0
 12 36  1  0  0  0  0
 13 37  1  0  0  0  0
 13 38  1  0  0  0  0
 15 16  1  0  0  0  0
 16 17  2  0  0  0  0
 16 19  1  0  0  0  0
 17 20  1  0  0  0  0
 18 23  1  0  0  0  0
 19 21  2  0  0  0  0
 19 41  1  0  0  0  0
 20 22  2  0  0  0  0
 20 42  1  0  0  0  0
 21 22  1  0  0  0  0
 21 24  1  0  0  0  0
 22 43  1  0  0  0  0
 23 25  2  0  0  0  0
 24 26  2  0  0  0  0
 25 27  1  0  0  0  0
 25 44  1  0  0  0  0
 26 29  1  0  0  0  0
 26 45  1  0  0  0  0
 27 28  2  0  0  0  0
 27 46  1  0  0  0  0
 28 47  1  0  0  0  0
 29 30  2  0  0  0  0
 29 48  1  0  0  0  0
 30 49  1  0  0  0  0
M  END
> <PUBCHEM_COMPOUND_CID>
11882875

> <PUBCHEM_CONFORMER_RMSD>
0.8

> <PUBCHEM_CONFORMER_DIVERSEORDER>
1
17
15
8
13
14
7
16
3
6
12
9
2
11
4
5
10

> <PUBCHEM_MMFF94_PARTIAL_CHARGES>
39
1 -0.08
10 0.3
13 0.3
14 0.57
15 0.54
16 0.09
17 0.12
18 0.71
19 -0.15
2 -0.57
20 -0.15
21 0.05
22 -0.15
23 -0.05
24 0.09
25 -0.15
26 -0.15
27 -0.15
28 -0.11
29 -0.15
3 -0.57
30 -0.01
39 0.37
4 -0.57
40 0.37
41 0.15
42 0.15
43 0.15
44 0.15
45 0.15
46 0.15
47 0.15
48 0.15
49 0.15
5 -0.28
6 -0.66
7 -0.73
8 -0.55
9 0.36

> <PUBCHEM_EFFECTIVE_ROTOR_COUNT>
5

> <PUBCHEM_PHARMACOPHORE_FEATURES>
11
1 2 acceptor
1 3 acceptor
1 4 acceptor
1 5 acceptor
1 7 donor
1 8 donor
5 1 23 25 27 28 rings
5 5 24 26 29 30 rings
6 16 17 19 20 21 22 rings
6 6 9 10 11 12 13 rings
7 6 8 9 14 15 16 17 rings

> <PUBCHEM_HEAVY_ATOM_COUNT>
30

> <PUBCHEM_ATOM_DEF_STEREO_COUNT>
2

> <PUBCHEM_ATOM_UDEF_STEREO_COUNT>
0

> <PUBCHEM_BOND_DEF_STEREO_COUNT>
0

> <PUBCHEM_BOND_UDEF_STEREO_COUNT>
0

> <PUBCHEM_ISOTOPIC_ATOM_COUNT>
0

> <PUBCHEM_COMPONENT_COUNT>
1

> <PUBCHEM_CACTVS_TAUTO_COUNT>
6

> <PUBCHEM_CONFORMER_ID>
00B5517B00000001

> <PUBCHEM_MMFF94_ENERGY>
80.5596

> <PUBCHEM_FEATURE_SELFOVERLAP>
55.849

> <PUBCHEM_SHAPE_FINGERPRINT>
10 15 18060419127409334106
10190206 1 11386356033175228591
106641 1 18060421339386102443
10670039 82 8718557099449829927
11135609 99 18041568069582399707
11408170 108 16950844709128974755
11456790 92 17346312662457142210
12035758 1 17632577149660432636
12166972 35 17095245813546801780
13383668 362 17984977352292203593
13540713 4 17771919224563626669
13540713 5 17771617138102198533
13668630 136 16660644050994638386
13673619 4 17095238133427656732
13782708 43 16877941646330386520
14251757 52 12247680461447297818
14251764 18 18202842175727313590
14931854 50 11241965958818316648
15183329 4 8574715706589774870
15188451 53 17603587426293526078
15347590 135 18060424590328615211
15510800 12 16950578657174089259
15706992 2 14404911327298643755
16994733 274 12967133795911886643
18335252 98 18335138692484927850
18603816 31 17676487302532653955
20105231 36 18342462496705019166
2026 5 16298935447911642482
20505436 4 13110964197881495261
21095123 293 14333127490249703330
21130935 74 18338796685876665426
21267235 1 18408605847244173020
21298829 104 11384113055287172738
21756936 100 14333404554437086981
21792934 111 18130794399821289197
22149856 69 17702685279427911121
22224240 67 17275103937970454039
23559900 14 11819575743659103758
23569943 247 17319002842497121434
23576562 1 9222644693145038363
24771293 8 16989126457097065973
3178227 256 17632577163056972912
3383291 50 18187088373072701979
4093350 32 14404912362691451332
4339292 15 15213290899771953322
504579 68 11314027959608728602
5104073 3 17987525796875413947
5385378 56 16630531700549565150
563151 97 9294747409998445655
5758199 1 15770058328177650358
58083652 198 18338499937157655412
5937810 71 10303551493838345035
59682541 35 18272930548782322370
5969126 39 15574706989559562151
6691757 9 17131822184003140775
9689198 14 13542467574466033418
9953998 17 17489587879272999923
9980921 221 12468622903480812415

> <PUBCHEM_SHAPE_MULTIPOLES>
582.82
24.61
2.08
1.54
14.94
0.69
-0.7
-12.65
17.37
-1.03
0.19
0.19
-0.6
-0.15

> <PUBCHEM_SHAPE_SELFOVERLAP>
1281.391

> <PUBCHEM_SHAPE_VOLUME>
314.1

> <PUBCHEM_COORDINATE_TYPE>
2
5
10

$$$$
