9424612
  -OEChem-12032416333D

 66 70  0     1  0  0  0  0  0999 V2000
    1.2163    4.0865   -2.4908 O   0  0  0  0  0  0  0  0  0  0  0  0
    6.1586   -3.1740   -1.6831 O   0  0  0  0  0  0  0  0  0  0  0  0
   -2.8235   -0.3526   -1.7094 O   0  0  0  0  0  0  0  0  0  0  0  0
   -5.3079   -1.2458   -1.5698 O   0  0  0  0  0  0  0  0  0  0  0  0
    2.2685    0.6987    1.0584 N   0  0  2  0  0  0  0  0  0  0  0  0
    0.6812    2.9982   -0.4871 N   0  0  0  0  0  0  0  0  0  0  0  0
    4.4892   -2.6913   -0.1409 N   0  0  0  0  0  0  0  0  0  0  0  0
   -2.2229    0.8586    0.1827 N   0  0  0  0  0  0  0  0  0  0  0  0
    2.1768    3.1474    1.5895 C   0  0  1  0  0  0  0  0  0  0  0  0
    0.1216    1.8207    1.6630 C   0  0  2  0  0  0  0  0  0  0  0  0
    0.8766    2.9552    2.3518 C   0  0  0  0  0  0  0  0  0  0  0  0
    3.0037    1.8447    1.6074 C   0  0  0  0  0  0  0  0  0  0  0  0
    0.9679    0.5284    1.7230 C   0  0  0  0  0  0  0  0  0  0  0  0
    3.0638   -0.5237    1.1442 C   0  0  0  0  0  0  0  0  0  0  0  0
    1.8407    3.6160    0.1709 C   0  0  0  0  0  0  0  0  0  0  0  0
   -0.2136    2.1698    0.2143 C   0  0  0  0  0  0  0  0  0  0  0  0
    2.3216   -1.6831    0.4665 C   0  0  0  0  0  0  0  0  0  0  0  0
    4.4336   -0.3080    0.4881 C   0  0  0  0  0  0  0  0  0  0  0  0
    3.1754   -2.9510    0.4607 C   0  0  0  0  0  0  0  0  0  0  0  0
    5.2450   -1.6024    0.4819 C   0  0  0  0  0  0  0  0  0  0  0  0
   -1.3132    1.6914   -0.4108 C   0  0  0  0  0  0  0  0  0  0  0  0
    0.4766    3.3547   -1.8325 C   0  0  0  0  0  0  0  0  0  0  0  0
   -1.5705    2.0300   -1.7898 C   0  0  0  0  0  0  0  0  0  0  0  0
   -0.7374    2.8058   -2.4856 C   0  0  0  0  0  0  0  0  0  0  0  0
    5.0511   -3.4120   -1.1942 C   0  0  0  0  0  0  0  0  0  0  0  0
    4.2287   -4.5464   -1.7512 C   0  0  0  0  0  0  0  0  0  0  0  0
   -2.9245   -0.1162   -0.5080 C   0  0  0  0  0  0  0  0  0  0  0  0
   -3.8521   -0.9391    0.3112 C   0  0  0  0  0  0  0  0  0  0  0  0
   -4.9942   -1.4609   -0.2610 C   0  0  0  0  0  0  0  0  0  0  0  0
   -3.5312   -1.1532    1.6369 C   0  0  0  0  0  0  0  0  0  0  0  0
   -5.8524   -2.2297    0.5253 C   0  0  0  0  0  0  0  0  0  0  0  0
   -4.3895   -1.9219    2.4231 C   0  0  0  0  0  0  0  0  0  0  0  0
   -5.5501   -2.4600    1.8673 C   0  0  0  0  0  0  0  0  0  0  0  0
   -6.5138   -1.8347   -2.0518 C   0  0  0  0  0  0  0  0  0  0  0  0
    2.7760    3.9265    2.0774 H   0  0  0  0  0  0  0  0  0  0  0  0
   -0.7924    1.6628    2.2459 H   0  0  0  0  0  0  0  0  0  0  0  0
    0.2829    3.8778    2.3546 H   0  0  0  0  0  0  0  0  0  0  0  0
    1.0802    2.7004    3.3991 H   0  0  0  0  0  0  0  0  0  0  0  0
    3.8981    2.0676    1.0178 H   0  0  0  0  0  0  0  0  0  0  0  0
    3.3242    1.6413    2.6381 H   0  0  0  0  0  0  0  0  0  0  0  0
    0.3678   -0.2512    1.2447 H   0  0  0  0  0  0  0  0  0  0  0  0
    1.1049    0.2365    2.7731 H   0  0  0  0  0  0  0  0  0  0  0  0
    3.2298   -0.7888    2.1987 H   0  0  0  0  0  0  0  0  0  0  0  0
    1.6214    4.6923    0.2028 H   0  0  0  0  0  0  0  0  0  0  0  0
    2.7131    3.5086   -0.4862 H   0  0  0  0  0  0  0  0  0  0  0  0
    2.0639   -1.4158   -0.5669 H   0  0  0  0  0  0  0  0  0  0  0  0
    1.3940   -1.9438    0.9848 H   0  0  0  0  0  0  0  0  0  0  0  0
    4.3110    0.0471   -0.5436 H   0  0  0  0  0  0  0  0  0  0  0  0
    5.0442    0.4226    1.0280 H   0  0  0  0  0  0  0  0  0  0  0  0
    3.3524   -3.2979    1.4859 H   0  0  0  0  0  0  0  0  0  0  0  0
    2.6376   -3.7453   -0.0600 H   0  0  0  0  0  0  0  0  0  0  0  0
    6.1950   -1.4406   -0.0373 H   0  0  0  0  0  0  0  0  0  0  0  0
    5.4812   -1.9135    1.5066 H   0  0  0  0  0  0  0  0  0  0  0  0
   -2.5009    1.7703   -2.2803 H   0  0  0  0  0  0  0  0  0  0  0  0
   -0.9490    3.0991   -3.5072 H   0  0  0  0  0  0  0  0  0  0  0  0
   -2.2706    0.8884    1.1934 H   0  0  0  0  0  0  0  0  0  0  0  0
    3.2962   -4.1639   -2.1747 H   0  0  0  0  0  0  0  0  0  0  0  0
    4.7879   -5.0432   -2.5502 H   0  0  0  0  0  0  0  0  0  0  0  0
    4.0227   -5.2843   -0.9713 H   0  0  0  0  0  0  0  0  0  0  0  0
   -2.6184   -0.7964    2.1019 H   0  0  0  0  0  0  0  0  0  0  0  0
   -6.7703   -2.6803    0.1641 H   0  0  0  0  0  0  0  0  0  0  0  0
   -4.1492   -2.1109    3.4653 H   0  0  0  0  0  0  0  0  0  0  0  0
   -6.2163   -3.0605    2.4800 H   0  0  0  0  0  0  0  0  0  0  0  0
   -6.6046   -1.5621   -3.1086 H   0  0  0  0  0  0  0  0  0  0  0  0
   -6.4748   -2.9285   -2.0094 H   0  0  0  0  0  0  0  0  0  0  0  0
   -7.3942   -1.4273   -1.5431 H   0  0  0  0  0  0  0  0  0  0  0  0
  1 22  2  0  0  0  0
  2 25  2  0  0  0  0
  3 27  2  0  0  0  0
  4 29  1  0  0  0  0
  4 34  1  0  0  0  0
  5 12  1  0  0  0  0
  5 13  1  0  0  0  0
  5 14  1  0  0  0  0
  6 15  1  0  0  0  0
  6 16  1  0  0  0  0
  6 22  1  0  0  0  0
  7 19  1  0  0  0  0
  7 20  1  0  0  0  0
  7 25  1  0  0  0  0
  8 21  1  0  0  0  0
  8 27  1  0  0  0  0
  8 56  1  0  0  0  0
  9 11  1  0  0  0  0
  9 12  1  0  0  0  0
  9 15  1  0  0  0  0
  9 35  1  0  0  0  0
 10 11  1  0  0  0  0
 10 13  1  0  0  0  0
 10 16  1  0  0  0  0
 10 36  1  0  0  0  0
 11 37  1  0  0  0  0
 11 38  1  0  0  0  0
 12 39  1  0  0  0  0
 12 40  1  0  0  0  0
 13 41  1  0  0  0  0
 13 42  1  0  0  0  0
 14 17  1  0  0  0  0
 14 18  1  0  0  0  0
 14 43  1  0  0  0  0
 15 44  1  0  0  0  0
 15 45  1  0  0  0  0
 16 21  2  0  0  0  0
 17 19  1  0  0  0  0
 17 46  1  0  0  0  0
 17 47  1  0  0  0  0
 18 20  1  0  0  0  0
 18 48  1  0  0  0  0
 18 49  1  0  0  0  0
 19 50  1  0  0  0  0
 19 51  1  0  0  0  0
 20 52  1  0  0  0  0
 20 53  1  0  0  0  0
 21 23  1  0  0  0  0
 22 24  1  0  0  0  0
 23 24  2  0  0  0  0
 23 54  1  0  0  0  0
 24 55  1  0  0  0  0
 25 26  1  0  0  0  0
 26 57  1  0  0  0  0
 26 58  1  0  0  0  0
 26 59  1  0  0  0  0
 27 28  1  0  0  0  0
 28 29  1  0  0  0  0
 28 30  2  0  0  0  0
 29 31  2  0  0  0  0
 30 32  1  0  0  0  0
 30 60  1  0  0  0  0
 31 33  1  0  0  0  0
 31 61  1  0  0  0  0
 32 33  2  0  0  0  0
 32 62  1  0  0  0  0
 33 63  1  0  0  0  0
 34 64  1  0  0  0  0
 34 65  1  0  0  0  0
 34 66  1  0  0  0  0
M  END
> <PUBCHEM_COMPOUND_CID>
9424612

> <PUBCHEM_CONFORMER_RMSD>
1

> <PUBCHEM_CONFORMER_DIVERSEORDER>
2
22
28
11
29
21
26
23
9
24
18
7
12
15
27
8
6
19
3
20
16
1
30
25
17
13
10
14
5
4

> <PUBCHEM_MMFF94_PARTIAL_CHARGES>
37
1 -0.57
10 0.14
12 0.27
13 0.27
14 0.27
15 0.3
16 -0.03
19 0.3
2 -0.57
20 0.3
21 0.11
22 0.62
23 -0.15
24 -0.14
25 0.57
26 0.06
27 0.54
28 0.09
29 0.08
3 -0.57
30 -0.15
31 -0.15
32 -0.15
33 -0.15
34 0.28
4 -0.36
5 -0.81
54 0.15
55 0.15
56 0.37
6 -0.47
60 0.15
61 0.15
62 0.15
63 0.15
7 -0.66
8 -0.54

> <PUBCHEM_EFFECTIVE_ROTOR_COUNT>
8.2

> <PUBCHEM_PHARMACOPHORE_FEATURES>
11
1 1 acceptor
1 2 acceptor
1 3 acceptor
1 4 acceptor
1 5 cation
1 8 donor
6 28 29 30 31 32 33 rings
6 5 9 10 11 12 13 rings
6 6 16 21 22 23 24 rings
6 6 9 10 11 15 16 rings
6 7 14 17 18 19 20 rings

> <PUBCHEM_HEAVY_ATOM_COUNT>
34

> <PUBCHEM_ATOM_DEF_STEREO_COUNT>
2

> <PUBCHEM_ATOM_UDEF_STEREO_COUNT>
0

> <PUBCHEM_BOND_DEF_STEREO_COUNT>
0

> <PUBCHEM_BOND_UDEF_STEREO_COUNT>
0

> <PUBCHEM_ISOTOPIC_ATOM_COUNT>
0

> <PUBCHEM_COMPONENT_COUNT>
1

> <PUBCHEM_CACTVS_TAUTO_COUNT>
2

> <PUBCHEM_CONFORMER_ID>
008FCEE400000002

> <PUBCHEM_MMFF94_ENERGY>
110.1143

> <PUBCHEM_FEATURE_SELFOVERLAP>
57.378

> <PUBCHEM_SHAPE_FINGERPRINT>
10653451 467 18339070610443021906
11093857 51 18046636878225792348
11387372 6 17339299817769453214
11477941 20 17461471060716555590
11488393 25 17606701358998003832
11607047 141 17681592348305499835
12107183 9 17845384267242980409
12422481 6 15481837762079168302
12623949 98 18339643450783095466
13135754 10 17272025159631609008
13533116 47 18128809932226688667
14863182 85 18048596216025344296
15219462 58 18129642175997742312
15475509 8 18042110000271413805
17909252 39 18041848440103752861
19315092 285 17631442544467012251
19319366 153 17342366724808442313
1979834 28 18046338910300722257
20771845 140 17831303070175370801
20775530 9 18337393729717926490
21365058 27 17763472007830704120
21716022 299 18117868627140948380
22440779 20 18265061244883221841
2260408 40 18263659514013782441
23559900 14 17895185675707723917
239999 70 17025986635146543081
25222932 49 16839939432551876775
3737641 26 18341896285942141344
4017518 198 17686643620561844004
404807 14 18057320588074556679
437795 70 18115852041743601549
437815 12 18270676468325197627
4394409 98 15738808735070540246
46194498 28 17606407802605006019
484985 159 17769938978362604483
5081480 168 17604163604978503513
6201320 221 17128422580704811223
6695519 79 16913364617476204346
6823239 73 17531795982957996929
86090 222 18114181994670580363
9980921 177 18196401207438816043

> <PUBCHEM_SHAPE_MULTIPOLES>
656.3
13.27
6
2.61
10.06
0.21
0.49
-20.8
1.73
-7.62
2.65
1.22
0.97
3.68

> <PUBCHEM_SHAPE_SELFOVERLAP>
1421.671

> <PUBCHEM_SHAPE_VOLUME>
350.2

> <PUBCHEM_COORDINATE_TYPE>
2
5
10

$$$$
