51137088
  -OEChem-12032416243D

 42 45  0     1  0  0  0  0  0999 V2000
    3.2426   -1.7836    0.6178 S   0  0  0  0  0  0  0  0  0  0  0  0
   -1.5324   -0.2139    0.0014 N   0  0  1  0  0  0  0  0  0  0  0  0
    2.5652    0.6264   -0.0025 N   0  0  0  0  0  0  0  0  0  0  0  0
    0.6362   -0.8186    0.6580 C   0  0  2  0  0  0  0  0  0  0  0  0
   -0.2475   -0.6095   -0.5792 C   0  0  0  0  0  0  0  0  0  0  0  0
   -0.0063    0.0569    1.7480 C   0  0  0  0  0  0  0  0  0  0  0  0
   -1.1907    0.7295    1.0660 C   0  0  0  0  0  0  0  0  0  0  0  0
   -2.4324    0.3657   -0.9847 C   0  0  0  0  0  0  0  0  0  0  0  0
    2.0967   -0.5338    0.3938 C   0  0  0  0  0  0  0  0  0  0  0  0
   -3.8610    0.3638   -0.5095 C   0  0  0  0  0  0  0  0  0  0  0  0
   -4.6177   -0.8078   -0.5153 C   0  0  0  0  0  0  0  0  0  0  0  0
    4.4999   -0.7016    0.1471 C   0  0  0  0  0  0  0  0  0  0  0  0
    3.9424    0.5460   -0.1484 C   0  0  0  0  0  0  0  0  0  0  0  0
   -4.4262    1.5568   -0.0592 C   0  0  0  0  0  0  0  0  0  0  0  0
   -5.9396   -0.7866   -0.0705 C   0  0  0  0  0  0  0  0  0  0  0  0
   -4.0345   -2.0970   -0.9929 C   0  0  0  0  0  0  0  0  0  0  0  0
    5.8801   -0.9398    0.0465 C   0  0  0  0  0  0  0  0  0  0  0  0
    4.7989    1.5906   -0.5589 C   0  0  0  0  0  0  0  0  0  0  0  0
   -5.7481    1.5783    0.3856 C   0  0  0  0  0  0  0  0  0  0  0  0
   -6.5047    0.4065    0.3800 C   0  0  0  0  0  0  0  0  0  0  0  0
    6.7053    0.1110   -0.3619 C   0  0  0  0  0  0  0  0  0  0  0  0
    6.1738    1.3606   -0.6612 C   0  0  0  0  0  0  0  0  0  0  0  0
    0.5216   -1.8640    0.9801 H   0  0  0  0  0  0  0  0  0  0  0  0
    0.1550    0.1766   -1.2319 H   0  0  0  0  0  0  0  0  0  0  0  0
   -0.3340   -1.5305   -1.1660 H   0  0  0  0  0  0  0  0  0  0  0  0
    0.6804    0.7961    2.1738 H   0  0  0  0  0  0  0  0  0  0  0  0
   -0.3567   -0.5818    2.5686 H   0  0  0  0  0  0  0  0  0  0  0  0
   -2.0126    0.8848    1.7718 H   0  0  0  0  0  0  0  0  0  0  0  0
   -0.8801    1.7041    0.6678 H   0  0  0  0  0  0  0  0  0  0  0  0
   -2.3869   -0.1993   -1.9250 H   0  0  0  0  0  0  0  0  0  0  0  0
   -2.1207    1.3811   -1.2675 H   0  0  0  0  0  0  0  0  0  0  0  0
   -3.8488    2.4775   -0.0470 H   0  0  0  0  0  0  0  0  0  0  0  0
   -6.5435   -1.6901   -0.0679 H   0  0  0  0  0  0  0  0  0  0  0  0
   -3.7210   -2.0222   -2.0388 H   0  0  0  0  0  0  0  0  0  0  0  0
   -3.1859   -2.3998   -0.3723 H   0  0  0  0  0  0  0  0  0  0  0  0
   -4.7674   -2.9105   -0.9425 H   0  0  0  0  0  0  0  0  0  0  0  0
    6.3021   -1.9129    0.2785 H   0  0  0  0  0  0  0  0  0  0  0  0
    4.3943    2.5707   -0.7952 H   0  0  0  0  0  0  0  0  0  0  0  0
   -6.1881    2.5071    0.7369 H   0  0  0  0  0  0  0  0  0  0  0  0
   -7.5339    0.4233    0.7266 H   0  0  0  0  0  0  0  0  0  0  0  0
    7.7766   -0.0522   -0.4463 H   0  0  0  0  0  0  0  0  0  0  0  0
    6.8312    2.1659   -0.9774 H   0  0  0  0  0  0  0  0  0  0  0  0
  1  9  1  0  0  0  0
  1 12  1  0  0  0  0
  2  5  1  0  0  0  0
  2  7  1  0  0  0  0
  2  8  1  0  0  0  0
  3  9  2  0  0  0  0
  3 13  1  0  0  0  0
  4  5  1  0  0  0  0
  4  6  1  0  0  0  0
  4  9  1  0  0  0  0
  4 23  1  0  0  0  0
  5 24  1  0  0  0  0
  5 25  1  0  0  0  0
  6  7  1  0  0  0  0
  6 26  1  0  0  0  0
  6 27  1  0  0  0  0
  7 28  1  0  0  0  0
  7 29  1  0  0  0  0
  8 10  1  0  0  0  0
  8 30  1  0  0  0  0
  8 31  1  0  0  0  0
 10 11  1  0  0  0  0
 10 14  2  0  0  0  0
 11 15  2  0  0  0  0
 11 16  1  0  0  0  0
 12 13  1  0  0  0  0
 12 17  2  0  0  0  0
 13 18  2  0  0  0  0
 14 19  1  0  0  0  0
 14 32  1  0  0  0  0
 15 20  1  0  0  0  0
 15 33  1  0  0  0  0
 16 34  1  0  0  0  0
 16 35  1  0  0  0  0
 16 36  1  0  0  0  0
 17 21  1  0  0  0  0
 17 37  1  0  0  0  0
 18 22  1  0  0  0  0
 18 38  1  0  0  0  0
 19 20  2  0  0  0  0
 19 39  1  0  0  0  0
 20 40  1  0  0  0  0
 21 22  2  0  0  0  0
 21 41  1  0  0  0  0
 22 42  1  0  0  0  0
M  END
> <PUBCHEM_COMPOUND_CID>
51137088

> <PUBCHEM_CONFORMER_RMSD>
0.6

> <PUBCHEM_CONFORMER_DIVERSEORDER>
1
80
142
149
125
18
148
147
74
43
101
99
150
145
119
135
92
58
153
118
123
34
121
128
78
40
6
68
110
106
137
66
131
76
141
51
113
88
143
82
139
44
75
127
67
115
112
152
27
22
108
133
90
124
130
94
86
114
3
144
60
11
116
59
54
70
16
87
151
138
120
96
61
48
32
89
140
77
8
111
30
91
31
19
71
109
4
65
50
132
9
81
14
122
57
64
21
62
29
126
63
39
55
85
5
93
83
84
36
49
15
97
134
100
103
20
102
53
35
37
23
25
98
17
105
33
129
2
24
72
117
7
10
26
45
79
41
42
107
136
38
12
56
28
69
52
95
46
104
47
73
13
146

> <PUBCHEM_MMFF94_PARTIAL_CHARGES>
29
1 -0.08
10 -0.14
11 -0.14
12 0.04
13 0.23
14 -0.15
15 -0.15
16 0.14
17 -0.15
18 -0.15
19 -0.15
2 -0.81
20 -0.15
21 -0.15
22 -0.15
3 -0.57
32 0.15
33 0.15
37 0.15
38 0.15
39 0.15
4 0.18
40 0.15
41 0.15
42 0.15
5 0.27
7 0.27
8 0.41
9 0.2

> <PUBCHEM_EFFECTIVE_ROTOR_COUNT>
4

> <PUBCHEM_PHARMACOPHORE_FEATURES>
6
1 2 cation
1 3 acceptor
5 1 3 9 12 13 rings
5 2 4 5 6 7 rings
6 10 11 14 15 19 20 rings
6 12 13 17 18 21 22 rings

> <PUBCHEM_HEAVY_ATOM_COUNT>
22

> <PUBCHEM_ATOM_DEF_STEREO_COUNT>
1

> <PUBCHEM_ATOM_UDEF_STEREO_COUNT>
0

> <PUBCHEM_BOND_DEF_STEREO_COUNT>
0

> <PUBCHEM_BOND_UDEF_STEREO_COUNT>
0

> <PUBCHEM_ISOTOPIC_ATOM_COUNT>
0

> <PUBCHEM_COMPONENT_COUNT>
1

> <PUBCHEM_CACTVS_TAUTO_COUNT>
1

> <PUBCHEM_CONFORMER_ID>
030C4A4000000001

> <PUBCHEM_MMFF94_ENERGY>
51.0468

> <PUBCHEM_FEATURE_SELFOVERLAP>
30.519

> <PUBCHEM_SHAPE_FINGERPRINT>
10 15 13479137925884638700
10299344 5 18413952793622654199
10595046 47 18408602552429250547
106641 1 12685102505357020388
11315181 36 18407760348814855661
11524674 6 16128655280213200247
11646440 116 16370730322398578444
12107183 9 17616811033286155185
12166972 35 18259706705313960340
12236239 1 18342175557590118286
12516196 113 9943805582147104790
12730499 353 17676490523572911706
12788726 201 17489028145769808851
12821665 9 18191026905105408943
12916748 109 16370723708444120412
13167372 99 18335984169012562720
13533116 47 16660635208068251232
13690498 29 18059284500546074287
14251752 14 18060137622098781592
14528608 73 18408040732352849998
14849402 71 18115315603922587900
14856354 85 18060423543089265471
14933364 13 18410013229942369829
15048467 5 18410856547272021293
15183329 4 18412542102385882629
15250474 111 18338779174720739615
15527383 91 10663817477672755210
15537594 2 16487252157920703191
16993438 75 18115877480039525779
17834072 33 18409728465395139830
17844677 252 18262239915278478285
21033648 29 17822857619274601800
220451 1 18342174457783455187
221357 26 18333730204804457404
22224240 67 16370729231961973977
23035841 295 18202001027778308587
23081809 10 18412536609191516711
23198884 109 18335140890796098233
23402539 116 18342453742252615252
23522609 53 18269296641072633769
23536379 177 18411699872273612218
23559900 14 17703500077641954489
23569943 247 17097481004363576250
23622692 88 13334741240972276050
2838139 119 17676483965068140844
2916195 48 17240480299394548060
29717793 49 18059862744993574134
3004659 81 18343584006585078958
314173 85 14908181953758020562
34797466 226 18272378580796636676
3545911 37 17894351077314715978
4073 2 17968101966557294482
4325135 7 18335420175355253727
4340502 62 16153426138851692186
5265222 85 18058729237914134551
5283156 175 17704076158117630982
53794403 172 17314522624223213188
542803 24 18410571781838522550
59682541 35 15864080896596106945
59755656 215 15267068016884535436
59755656 520 17312821593165583106
9996256 80 18260828198045578740

> <PUBCHEM_SHAPE_MULTIPOLES>
446.64
18.61
1.67
1.04
2.03
0.14
-0.2
-3.27
2.63
-0.21
0.17
-0.24
0.05
-1.41

> <PUBCHEM_SHAPE_SELFOVERLAP>
961.936

> <PUBCHEM_SHAPE_VOLUME>
248.2

> <PUBCHEM_COORDINATE_TYPE>
2
5
10

$$$$
