45783658
  -OEChem-12032416273D

 51 55  0     1  0  0  0  0  0999 V2000
   -1.5944   -2.0505    1.6295 O   0  0  0  0  0  0  0  0  0  0  0  0
   -3.8029   -0.3370   -0.7564 N   0  0  1  0  0  0  0  0  0  0  0  0
   -0.9287   -0.8783   -0.1593 N   0  0  0  0  0  0  0  0  0  0  0  0
   -0.2123   -1.8732    1.7722 N   0  0  0  0  0  0  0  0  0  0  0  0
    3.7753   -0.6962    1.0499 N   0  0  0  0  0  0  0  0  0  0  0  0
    5.3339    0.3976   -0.3190 N   0  0  0  0  0  0  0  0  0  0  0  0
    7.5215    0.6402   -0.0235 N   0  0  0  0  0  0  0  0  0  0  0  0
   -4.1802    0.8403    0.0234 C   0  0  0  0  0  0  0  0  0  0  0  0
   -3.3979   -1.4840    0.0805 C   0  0  1  0  0  0  0  0  0  0  0  0
   -2.9994    1.2911    0.8904 C   0  0  0  0  0  0  0  0  0  0  0  0
   -4.6368    1.9625   -0.9153 C   0  0  0  0  0  0  0  0  0  0  0  0
   -4.8976   -0.8096   -1.6041 C   0  0  0  0  0  0  0  0  0  0  0  0
   -3.7493   -2.7251   -0.7607 C   0  0  0  0  0  0  0  0  0  0  0  0
   -4.4009   -2.1787   -2.0229 C   0  0  0  0  0  0  0  0  0  0  0  0
   -3.3314    2.5664    1.6634 C   0  0  0  0  0  0  0  0  0  0  0  0
   -4.9673    3.2366   -0.1398 C   0  0  0  0  0  0  0  0  0  0  0  0
   -3.7981    3.6829    0.7336 C   0  0  0  0  0  0  0  0  0  0  0  0
   -1.9347   -1.4349    0.4669 C   0  0  0  0  0  0  0  0  0  0  0  0
    0.1065   -1.1734    0.6793 C   0  0  0  0  0  0  0  0  0  0  0  0
    1.4488   -0.7552    0.3951 C   0  0  0  0  0  0  0  0  0  0  0  0
    1.7458   -0.0291   -0.7530 C   0  0  0  0  0  0  0  0  0  0  0  0
    2.4899   -1.0606    1.2568 C   0  0  0  0  0  0  0  0  0  0  0  0
    3.0566    0.3637   -1.0006 C   0  0  0  0  0  0  0  0  0  0  0  0
    4.0257    0.0084   -0.0764 C   0  0  0  0  0  0  0  0  0  0  0  0
    5.7802    1.1103   -1.3961 C   0  0  0  0  0  0  0  0  0  0  0  0
    6.4146    0.1382    0.4772 C   0  0  0  0  0  0  0  0  0  0  0  0
    7.1329    1.2476   -1.1914 C   0  0  0  0  0  0  0  0  0  0  0  0
   -5.0197    0.5932    0.6896 H   0  0  0  0  0  0  0  0  0  0  0  0
   -4.0014   -1.5261    0.9985 H   0  0  0  0  0  0  0  0  0  0  0  0
   -2.1123    1.4795    0.2731 H   0  0  0  0  0  0  0  0  0  0  0  0
   -2.7461    0.5517    1.6542 H   0  0  0  0  0  0  0  0  0  0  0  0
   -5.5384    1.6837   -1.4717 H   0  0  0  0  0  0  0  0  0  0  0  0
   -3.8548    2.1839   -1.6537 H   0  0  0  0  0  0  0  0  0  0  0  0
   -5.0558   -0.1887   -2.4908 H   0  0  0  0  0  0  0  0  0  0  0  0
   -5.8406   -0.9019   -1.0504 H   0  0  0  0  0  0  0  0  0  0  0  0
   -2.8850   -3.3508   -1.0087 H   0  0  0  0  0  0  0  0  0  0  0  0
   -4.4698   -3.3476   -0.2161 H   0  0  0  0  0  0  0  0  0  0  0  0
   -3.6517   -2.0879   -2.8193 H   0  0  0  0  0  0  0  0  0  0  0  0
   -5.2060   -2.8247   -2.3854 H   0  0  0  0  0  0  0  0  0  0  0  0
   -2.4500    2.8986    2.2238 H   0  0  0  0  0  0  0  0  0  0  0  0
   -4.1167    2.3541    2.3996 H   0  0  0  0  0  0  0  0  0  0  0  0
   -5.8481    3.0627    0.4906 H   0  0  0  0  0  0  0  0  0  0  0  0
   -5.2293    4.0374   -0.8406 H   0  0  0  0  0  0  0  0  0  0  0  0
   -4.0923    4.5569    1.3254 H   0  0  0  0  0  0  0  0  0  0  0  0
   -2.9641    3.9961    0.0935 H   0  0  0  0  0  0  0  0  0  0  0  0
    0.9761    0.2442   -1.4703 H   0  0  0  0  0  0  0  0  0  0  0  0
    2.3426   -1.6232    2.1740 H   0  0  0  0  0  0  0  0  0  0  0  0
    3.2382    0.9270   -1.9068 H   0  0  0  0  0  0  0  0  0  0  0  0
    5.1687    1.4693   -2.2106 H   0  0  0  0  0  0  0  0  0  0  0  0
    6.3532   -0.4148    1.4056 H   0  0  0  0  0  0  0  0  0  0  0  0
    7.8469    1.7528   -1.8254 H   0  0  0  0  0  0  0  0  0  0  0  0
  1  4  1  0  0  0  0
  1 18  1  0  0  0  0
  2  8  1  0  0  0  0
  2  9  1  0  0  0  0
  2 12  1  0  0  0  0
  3 18  2  0  0  0  0
  3 19  1  0  0  0  0
  4 19  2  0  0  0  0
  5 22  1  0  0  0  0
  5 24  2  0  0  0  0
  6 24  1  0  0  0  0
  6 25  1  0  0  0  0
  6 26  1  0  0  0  0
  7 26  2  0  0  0  0
  7 27  1  0  0  0  0
  8 10  1  0  0  0  0
  8 11  1  0  0  0  0
  8 28  1  0  0  0  0
  9 13  1  0  0  0  0
  9 18  1  0  0  0  0
  9 29  1  0  0  0  0
 10 15  1  0  0  0  0
 10 30  1  0  0  0  0
 10 31  1  0  0  0  0
 11 16  1  0  0  0  0
 11 32  1  0  0  0  0
 11 33  1  0  0  0  0
 12 14  1  0  0  0  0
 12 34  1  0  0  0  0
 12 35  1  0  0  0  0
 13 14  1  0  0  0  0
 13 36  1  0  0  0  0
 13 37  1  0  0  0  0
 14 38  1  0  0  0  0
 14 39  1  0  0  0  0
 15 17  1  0  0  0  0
 15 40  1  0  0  0  0
 15 41  1  0  0  0  0
 16 17  1  0  0  0  0
 16 42  1  0  0  0  0
 16 43  1  0  0  0  0
 17 44  1  0  0  0  0
 17 45  1  0  0  0  0
 19 20  1  0  0  0  0
 20 21  1  0  0  0  0
 20 22  2  0  0  0  0
 21 23  2  0  0  0  0
 21 46  1  0  0  0  0
 22 47  1  0  0  0  0
 23 24  1  0  0  0  0
 23 48  1  0  0  0  0
 25 27  2  0  0  0  0
 25 49  1  0  0  0  0
 26 50  1  0  0  0  0
 27 51  1  0  0  0  0
M  END
> <PUBCHEM_COMPOUND_CID>
45783658

> <PUBCHEM_CONFORMER_RMSD>
0.8

> <PUBCHEM_CONFORMER_DIVERSEORDER>
1
44
35
15
23
51
36
42
9
22
43
49
4
13
27
30
47
45
28
26
2
40
16
50
39
32
38
12
14
34
46
24
37
48
52
20
11
19
18
17
5
8
3
25
29
33
6
10
21
7
31
41

> <PUBCHEM_MMFF94_PARTIAL_CHARGES>
26
1 -0.02
12 0.27
18 0.3
19 0.46
2 -0.81
20 0.05
21 -0.15
22 0.16
23 -0.15
24 0.29
25 -0.3
26 0.04
27 0.08
3 -0.57
4 -0.41
46 0.15
47 0.15
48 0.15
49 0.15
5 -0.62
50 0.15
51 0.15
6 0.33
7 -0.57
8 0.27
9 0.45

> <PUBCHEM_EFFECTIVE_ROTOR_COUNT>
6.2

> <PUBCHEM_PHARMACOPHORE_FEATURES>
9
1 2 cation
3 3 4 19 cation
3 5 6 24 cation
3 6 7 26 cation
5 1 3 4 18 19 rings
5 2 9 12 13 14 rings
5 6 7 25 26 27 rings
6 5 20 21 22 23 24 rings
6 8 10 11 15 16 17 rings

> <PUBCHEM_HEAVY_ATOM_COUNT>
27

> <PUBCHEM_ATOM_DEF_STEREO_COUNT>
1

> <PUBCHEM_ATOM_UDEF_STEREO_COUNT>
0

> <PUBCHEM_BOND_DEF_STEREO_COUNT>
0

> <PUBCHEM_BOND_UDEF_STEREO_COUNT>
0

> <PUBCHEM_ISOTOPIC_ATOM_COUNT>
0

> <PUBCHEM_COMPONENT_COUNT>
1

> <PUBCHEM_CACTVS_TAUTO_COUNT>
1

> <PUBCHEM_CONFORMER_ID>
02BA9A6A00000001

> <PUBCHEM_MMFF94_ENERGY>
43.8057

> <PUBCHEM_FEATURE_SELFOVERLAP>
45.794

> <PUBCHEM_SHAPE_FINGERPRINT>
10076449 9 18342736356682900239
10087517 78 18409166610532259356
10291535 26 18410018753713288011
10454371 7 18343586243688391276
10670039 82 18411132545685472593
10906281 52 17603600633961637030
10937287 8 17553772763924314185
11049842 53 17769637725563506619
11089746 13 18334291011690049380
11101153 10 18197218267945835388
11315181 36 18115026424132314894
11477941 20 18059562650706537621
11640471 11 18119242875452878155
12107183 9 17976532819729075906
12107698 1 18271241737144559061
12788726 201 18339908382474709939
12895837 130 18410017611305364653
13540713 5 18191288413101615675
13673619 4 16916220126187965631
13690498 29 17917141823060509207
14251764 75 17766007099535094401
14294032 229 18272934887358829929
14556957 393 18339081613674734109
14950920 106 11097859596367822990
15064981 113 17914881067859801335
15163728 17 18271251499937610111
15183329 4 17894625968565673254
15289351 153 18191872435198975284
15352257 5 10953726795559650408
15876981 60 18339363067071178125
16126227 98 18129390311163380273
16992828 155 18042680611909272733
17913733 40 15430035440110291992
17980427 23 18260275165451349436
18643901 69 17131266991389001335
19489759 90 18341331175499110374
21033650 10 18269574796081114374
21236236 1 18409731767971867412
21360442 33 10670079269936087425
21756936 100 18333456434877431843
23081809 10 18333447656307143698
23198884 109 18410292531908416798
23516275 100 17982432000361103848
25147074 1 18261661585284696586
255183 451 17483095430942223535
2838139 119 18408042931471388772
328310 18 18343587326162236801
328310 630 17676777573464489668
3610482 184 18411145705565358293
397830 11 11819287697756820670
4169191 19 17531535412072575572
445580 204 18408885126738396772
445580 37 18411425020553444028
44802255 64 17775006825624816174
46194498 28 17274535563795136784
5104073 3 17023183894661364624
5171179 24 17986947638422303128
5283173 99 18272088305653670808
531348 171 18130792222241695998
550186 7 18060136505534074197
563151 97 18409166597752839286
5937810 71 17823440339062883172
6086070 43 17988921155300095800
6299153 45 18115583730704412058
6327066 14 18265049129445131373
6328613 192 17895198857115817364
636775 72 18335702810596639684
6608658 132 18410568470609148421
7808743 9 18339643330703619321
7970288 3 10375280328950368517

> <PUBCHEM_SHAPE_MULTIPOLES>
519.89
17.29
3.25
1.6
30.37
2.02
-0.02
8.3
-6.3
-7.6
0.33
-0.55
-0.4
-2.59

> <PUBCHEM_SHAPE_SELFOVERLAP>
1136.653

> <PUBCHEM_SHAPE_VOLUME>
283.4

> <PUBCHEM_COORDINATE_TYPE>
2
5
10

$$$$
