40779893
  -OEChem-12032416263D

 58 62  0     1  0  0  0  0  0999 V2000
   -1.4504    4.9732   -0.4491 Cl  0  0  0  0  0  0  0  0  0  0  0  0
   -4.6653   -0.3898    0.1155 S   0  0  0  0  0  0  0  0  0  0  0  0
   -5.1273   -0.4919    1.4867 O   0  0  0  0  0  0  0  0  0  0  0  0
   -5.6157   -0.4311   -0.9794 O   0  0  0  0  0  0  0  0  0  0  0  0
   -0.2128   -2.9608    1.2065 N   0  0  2  0  0  0  0  0  0  0  0  0
    2.3285    0.3791   -0.0315 N   0  0  2  0  0  0  0  0  0  0  0  0
   -3.4237   -1.5546   -0.1356 N   0  0  0  0  0  0  0  0  0  0  0  0
    0.6640   -2.8388   -1.2396 C   0  0  2  0  0  0  0  0  0  0  0  0
    1.4373   -1.8599   -0.3267 C   0  0  2  0  0  0  0  0  0  0  0  0
   -1.3474   -2.7431    0.2689 C   0  0  2  0  0  0  0  0  0  0  0  0
   -0.8405   -2.5176   -1.1729 C   0  0  0  0  0  0  0  0  0  0  0  0
    0.7820   -1.8692    1.0727 C   0  0  0  0  0  0  0  0  0  0  0  0
    0.8561   -4.2485   -0.6482 C   0  0  0  0  0  0  0  0  0  0  0  0
    0.4479   -4.2359    0.8356 C   0  0  0  0  0  0  0  0  0  0  0  0
    1.5261   -0.4465   -0.8977 C   0  0  0  0  0  0  0  0  0  0  0  0
   -2.2757   -1.6162    0.7278 C   0  0  0  0  0  0  0  0  0  0  0  0
    1.8196    1.6068    0.5766 C   0  0  0  0  0  0  0  0  0  0  0  0
    3.7036    0.5239   -0.1477 C   0  0  0  0  0  0  0  0  0  0  0  0
    3.0167    2.2814    1.2767 C   0  0  0  0  0  0  0  0  0  0  0  0
    4.1669    1.6253    0.5834 C   0  0  0  0  0  0  0  0  0  0  0  0
    4.6034   -0.2618   -0.8515 C   0  0  0  0  0  0  0  0  0  0  0  0
    5.5089    1.9619    0.6363 C   0  0  0  0  0  0  0  0  0  0  0  0
   -3.7601    1.1201   -0.0435 C   0  0  0  0  0  0  0  0  0  0  0  0
    5.9618    0.0700   -0.8160 C   0  0  0  0  0  0  0  0  0  0  0  0
    6.4113    1.1741   -0.0771 C   0  0  0  0  0  0  0  0  0  0  0  0
   -3.6313    1.7280   -1.2924 C   0  0  0  0  0  0  0  0  0  0  0  0
   -3.1747    1.7040    1.0799 C   0  0  0  0  0  0  0  0  0  0  0  0
   -2.9171    2.9194   -1.4179 C   0  0  0  0  0  0  0  0  0  0  0  0
   -2.4604    2.8954    0.9546 C   0  0  0  0  0  0  0  0  0  0  0  0
   -2.3316    3.5032   -0.2944 C   0  0  0  0  0  0  0  0  0  0  0  0
    1.0284   -2.8000   -2.2714 H   0  0  0  0  0  0  0  0  0  0  0  0
    2.4586   -2.2517   -0.2196 H   0  0  0  0  0  0  0  0  0  0  0  0
   -1.9566   -3.6596    0.2716 H   0  0  0  0  0  0  0  0  0  0  0  0
   -1.0197   -1.4948   -1.5207 H   0  0  0  0  0  0  0  0  0  0  0  0
   -1.3836   -3.1822   -1.8569 H   0  0  0  0  0  0  0  0  0  0  0  0
    1.5613   -2.0032    1.8347 H   0  0  0  0  0  0  0  0  0  0  0  0
    0.3131   -0.9123    1.3213 H   0  0  0  0  0  0  0  0  0  0  0  0
    1.9019   -4.5634   -0.7439 H   0  0  0  0  0  0  0  0  0  0  0  0
    0.2466   -4.9731   -1.2015 H   0  0  0  0  0  0  0  0  0  0  0  0
   -0.2220   -5.0790    1.0453 H   0  0  0  0  0  0  0  0  0  0  0  0
    1.3278   -4.3965    1.4714 H   0  0  0  0  0  0  0  0  0  0  0  0
    0.5237   -0.0101   -0.9801 H   0  0  0  0  0  0  0  0  0  0  0  0
    1.9317   -0.4615   -1.9167 H   0  0  0  0  0  0  0  0  0  0  0  0
   -1.7414   -0.6639    0.6926 H   0  0  0  0  0  0  0  0  0  0  0  0
   -2.5995   -1.7909    1.7596 H   0  0  0  0  0  0  0  0  0  0  0  0
    1.0068    1.4086    1.2829 H   0  0  0  0  0  0  0  0  0  0  0  0
    1.4288    2.2700   -0.2064 H   0  0  0  0  0  0  0  0  0  0  0  0
   -3.3037   -1.8791   -1.1026 H   0  0  0  0  0  0  0  0  0  0  0  0
    3.0331    2.0385    2.3442 H   0  0  0  0  0  0  0  0  0  0  0  0
    3.0012    3.3661    1.1394 H   0  0  0  0  0  0  0  0  0  0  0  0
    4.2798   -1.1227   -1.4271 H   0  0  0  0  0  0  0  0  0  0  0  0
    5.8534    2.8114    1.2155 H   0  0  0  0  0  0  0  0  0  0  0  0
    6.6780   -0.5360   -1.3646 H   0  0  0  0  0  0  0  0  0  0  0  0
    7.4710    1.4134   -0.0583 H   0  0  0  0  0  0  0  0  0  0  0  0
   -4.0726    1.2865   -2.1815 H   0  0  0  0  0  0  0  0  0  0  0  0
   -3.2581    1.2448    2.0609 H   0  0  0  0  0  0  0  0  0  0  0  0
   -2.8232    3.3810   -2.3975 H   0  0  0  0  0  0  0  0  0  0  0  0
   -2.0075    3.3379    1.8382 H   0  0  0  0  0  0  0  0  0  0  0  0
  1 30  1  0  0  0  0
  2  3  2  0  0  0  0
  2  4  2  0  0  0  0
  2  7  1  0  0  0  0
  2 23  1  0  0  0  0
  5 10  1  0  0  0  0
  5 12  1  0  0  0  0
  5 14  1  0  0  0  0
  6 15  1  0  0  0  0
  6 17  1  0  0  0  0
  6 18  1  0  0  0  0
  7 16  1  0  0  0  0
  7 48  1  0  0  0  0
  8  9  1  0  0  0  0
  8 11  1  0  0  0  0
  8 13  1  0  0  0  0
  8 31  1  0  0  0  0
  9 12  1  0  0  0  0
  9 15  1  0  0  0  0
  9 32  1  0  0  0  0
 10 11  1  0  0  0  0
 10 16  1  0  0  0  0
 10 33  1  0  0  0  0
 11 34  1  0  0  0  0
 11 35  1  0  0  0  0
 12 36  1  0  0  0  0
 12 37  1  0  0  0  0
 13 14  1  0  0  0  0
 13 38  1  0  0  0  0
 13 39  1  0  0  0  0
 14 40  1  0  0  0  0
 14 41  1  0  0  0  0
 15 42  1  0  0  0  0
 15 43  1  0  0  0  0
 16 44  1  0  0  0  0
 16 45  1  0  0  0  0
 17 19  1  0  0  0  0
 17 46  1  0  0  0  0
 17 47  1  0  0  0  0
 18 20  1  0  0  0  0
 18 21  2  0  0  0  0
 19 20  1  0  0  0  0
 19 49  1  0  0  0  0
 19 50  1  0  0  0  0
 20 22  2  0  0  0  0
 21 24  1  0  0  0  0
 21 51  1  0  0  0  0
 22 25  1  0  0  0  0
 22 52  1  0  0  0  0
 23 26  2  0  0  0  0
 23 27  1  0  0  0  0
 24 25  2  0  0  0  0
 24 53  1  0  0  0  0
 25 54  1  0  0  0  0
 26 28  1  0  0  0  0
 26 55  1  0  0  0  0
 27 29  2  0  0  0  0
 27 56  1  0  0  0  0
 28 30  2  0  0  0  0
 28 57  1  0  0  0  0
 29 30  1  0  0  0  0
 29 58  1  0  0  0  0
M  END
> <PUBCHEM_COMPOUND_CID>
40779893

> <PUBCHEM_CONFORMER_RMSD>
1

> <PUBCHEM_CONFORMER_DIVERSEORDER>
1
123
28
157
154
9
71
75
143
97
35
141
132
64
62
99
38
138
139
147
155
43
61
133
120
121
73
82
48
90
39
44
106
101
145
107
108
32
98
40
84
21
25
103
93
116
68
67
76
124
130
2
66
152
126
122
146
30
50
55
158
125
23
11
129
4
88
80
53
85
117
109
37
36
29
45
153
114
24
135
19
20
87
94
56
54
112
42
104
13
134
33
69
144
57
16
137
86
142
102
100
131
65
78
115
31
74
110
105
59
41
77
128
70
159
8
34
52
6
49
15
92
26
111
95
113
140
63
96
118
127
46
51
148
149
89
151
79
18
81
91
83
47
119
58
5
156
27
136
72
10
7
14
3
60
12
150
22
17

> <PUBCHEM_MMFF94_PARTIAL_CHARGES>
35
1 -0.18
10 0.27
12 0.27
14 0.27
15 0.37
16 0.36
17 0.37
18 0.1
19 0.14
2 1.45
20 -0.14
21 -0.15
22 -0.15
23 -0.01
24 -0.15
25 -0.15
26 -0.15
27 -0.15
28 -0.15
29 -0.15
3 -0.65
30 0.18
4 -0.65
48 0.42
5 -0.81
51 0.15
52 0.15
53 0.15
54 0.15
55 0.15
56 0.15
57 0.15
58 0.15
6 -0.84
7 -0.91

> <PUBCHEM_EFFECTIVE_ROTOR_COUNT>
7.8

> <PUBCHEM_PHARMACOPHORE_FEATURES>
9
1 3 acceptor
1 4 acceptor
1 5 cation
1 6 cation
1 7 donor
5 6 17 18 19 20 rings
6 18 20 21 22 24 25 rings
6 23 26 27 28 29 30 rings
8 5 8 9 10 11 12 13 14 rings

> <PUBCHEM_HEAVY_ATOM_COUNT>
30

> <PUBCHEM_ATOM_DEF_STEREO_COUNT>
3

> <PUBCHEM_ATOM_UDEF_STEREO_COUNT>
0

> <PUBCHEM_BOND_DEF_STEREO_COUNT>
0

> <PUBCHEM_BOND_UDEF_STEREO_COUNT>
0

> <PUBCHEM_ISOTOPIC_ATOM_COUNT>
0

> <PUBCHEM_COMPONENT_COUNT>
1

> <PUBCHEM_CACTVS_TAUTO_COUNT>
1

> <PUBCHEM_CONFORMER_ID>
026E407500000001

> <PUBCHEM_MMFF94_ENERGY>
78.8208

> <PUBCHEM_FEATURE_SELFOVERLAP>
45.78

> <PUBCHEM_SHAPE_FINGERPRINT>
100830 39 18409166615438987268
10670039 82 18408885131349771224
11578080 2 17533487946838044247
12128747 34 18338803317221813382
12596602 18 16153995762751761136
13402501 40 18341896324412587761
14117953 113 18409448115937744829
14251757 17 17988655051489078118
14251757 5 18192444176036964268
14251764 38 18121213178203170875
14347329 18 18117304556612045230
14466204 15 18339636733997622194
14790565 3 18337391535627980310
16992787 43 18337383831026786365
17627616 140 18192712246119907858
19611394 137 17826244162116976219
21279426 13 18341057303258157254
21796203 349 16612268554307505650
21859007 373 18342734131710271770
22113638 7 18122340439810091605
22393880 68 18196374719294195796
25019877 29 17201658850811880447
3298306 158 18340480063209777540
3388396 114 18267848533088179613
4046055 25 16909171298169658638
46194498 28 17915185615944800935
469060 322 18263102005973673017
50150288 127 16485302612515841497
508706 21 18410579491463230372
53794403 172 17761770659689539965
59755656 215 18410856542887253445
9981440 41 18260553316234636323

> <PUBCHEM_SHAPE_MULTIPOLES>
596.42
11.84
5.99
1.31
8.46
0.49
0.01
-7.53
0.55
-2.48
0.16
-0.48
0.05
1.38

> <PUBCHEM_SHAPE_SELFOVERLAP>
1268.156

> <PUBCHEM_SHAPE_VOLUME>
335.5

> <PUBCHEM_COORDINATE_TYPE>
2
5
10

$$$$
