56775536
  -OEChem-12032416323D

 41 43  0     0  0  0  0  0  0999 V2000
    1.6006    2.5968   -0.3767 Cl  0  0  0  0  0  0  0  0  0  0  0  0
    0.3539   -3.4686    1.2645 O   0  0  0  0  0  0  0  0  0  0  0  0
   -2.8624    1.2882   -0.8909 O   0  0  0  0  0  0  0  0  0  0  0  0
   -5.0105    1.4438    1.2081 O   0  0  0  0  0  0  0  0  0  0  0  0
    0.8878   -0.6563    0.2646 N   0  0  0  0  0  0  0  0  0  0  0  0
   -1.6651    0.6729   -1.2352 N   0  0  0  0  0  0  0  0  0  0  0  0
    0.0812   -1.8308   -0.0769 C   0  0  0  0  0  0  0  0  0  0  0  0
    0.9600   -3.0731    0.0129 C   0  0  0  0  0  0  0  0  0  0  0  0
   -0.5741   -2.3621    1.1930 C   0  0  0  0  0  0  0  0  0  0  0  0
   -0.7631   -1.6243   -1.2969 C   0  0  0  0  0  0  0  0  0  0  0  0
    1.8954   -0.4465   -0.7745 C   0  0  0  0  0  0  0  0  0  0  0  0
   -1.8719   -0.6297   -1.0222 C   0  0  0  0  0  0  0  0  0  0  0  0
    3.0808    0.3109   -0.2689 C   0  0  0  0  0  0  0  0  0  0  0  0
   -3.1685   -0.8936   -0.5479 C   0  0  0  0  0  0  0  0  0  0  0  0
   -3.7499    0.3450   -0.4832 C   0  0  0  0  0  0  0  0  0  0  0  0
    3.0345    1.6893   -0.0607 C   0  0  0  0  0  0  0  0  0  0  0  0
    4.2541   -0.3953   -0.0042 C   0  0  0  0  0  0  0  0  0  0  0  0
   -5.0770    0.8249   -0.0796 C   0  0  0  0  0  0  0  0  0  0  0  0
    4.1615    2.3615    0.4123 C   0  0  0  0  0  0  0  0  0  0  0  0
    5.3813    0.2768    0.4686 C   0  0  0  0  0  0  0  0  0  0  0  0
    5.3350    1.6553    0.6769 C   0  0  0  0  0  0  0  0  0  0  0  0
   -6.2837    1.9150    1.6169 C   0  0  0  0  0  0  0  0  0  0  0  0
    0.7795   -3.8321   -0.7565 H   0  0  0  0  0  0  0  0  0  0  0  0
    2.0410   -2.9688    0.1451 H   0  0  0  0  0  0  0  0  0  0  0  0
   -0.5207   -1.7350    2.0893 H   0  0  0  0  0  0  0  0  0  0  0  0
   -1.5957   -2.7416    1.0920 H   0  0  0  0  0  0  0  0  0  0  0  0
   -1.2392   -2.5710   -1.5878 H   0  0  0  0  0  0  0  0  0  0  0  0
   -0.1880   -1.3142   -2.1768 H   0  0  0  0  0  0  0  0  0  0  0  0
    0.3611    0.2022    0.4205 H   0  0  0  0  0  0  0  0  0  0  0  0
    1.4570    0.1039   -1.6173 H   0  0  0  0  0  0  0  0  0  0  0  0
    2.2556   -1.3729   -1.2379 H   0  0  0  0  0  0  0  0  0  0  0  0
   -3.6174   -1.8421   -0.2927 H   0  0  0  0  0  0  0  0  0  0  0  0
    4.3081   -1.4699   -0.1577 H   0  0  0  0  0  0  0  0  0  0  0  0
   -5.4482    1.5506   -0.8131 H   0  0  0  0  0  0  0  0  0  0  0  0
   -5.7823   -0.0137   -0.0404 H   0  0  0  0  0  0  0  0  0  0  0  0
    4.1417    3.4354    0.5800 H   0  0  0  0  0  0  0  0  0  0  0  0
    6.2948   -0.2731    0.6754 H   0  0  0  0  0  0  0  0  0  0  0  0
    6.2125    2.1785    1.0453 H   0  0  0  0  0  0  0  0  0  0  0  0
   -6.6591    2.6678    0.9170 H   0  0  0  0  0  0  0  0  0  0  0  0
   -6.9943    1.0864    1.6956 H   0  0  0  0  0  0  0  0  0  0  0  0
   -6.1801    2.3780    2.6020 H   0  0  0  0  0  0  0  0  0  0  0  0
  1 16  1  0  0  0  0
  2  8  1  0  0  0  0
  2  9  1  0  0  0  0
  3  6  1  0  0  0  0
  3 15  1  0  0  0  0
  4 18  1  0  0  0  0
  4 22  1  0  0  0  0
  5  7  1  0  0  0  0
  5 11  1  0  0  0  0
  5 29  1  0  0  0  0
  6 12  2  0  0  0  0
  7  8  1  0  0  0  0
  7  9  1  0  0  0  0
  7 10  1  0  0  0  0
  8 23  1  0  0  0  0
  8 24  1  0  0  0  0
  9 25  1  0  0  0  0
  9 26  1  0  0  0  0
 10 12  1  0  0  0  0
 10 27  1  0  0  0  0
 10 28  1  0  0  0  0
 11 13  1  0  0  0  0
 11 30  1  0  0  0  0
 11 31  1  0  0  0  0
 12 14  1  0  0  0  0
 13 16  1  0  0  0  0
 13 17  2  0  0  0  0
 14 15  2  0  0  0  0
 14 32  1  0  0  0  0
 15 18  1  0  0  0  0
 16 19  2  0  0  0  0
 17 20  1  0  0  0  0
 17 33  1  0  0  0  0
 18 34  1  0  0  0  0
 18 35  1  0  0  0  0
 19 21  1  0  0  0  0
 19 36  1  0  0  0  0
 20 21  2  0  0  0  0
 20 37  1  0  0  0  0
 21 38  1  0  0  0  0
 22 39  1  0  0  0  0
 22 40  1  0  0  0  0
 22 41  1  0  0  0  0
M  END
> <PUBCHEM_COMPOUND_CID>
56775536

> <PUBCHEM_CONFORMER_RMSD>
0.8

> <PUBCHEM_CONFORMER_DIVERSEORDER>
1
211
101
234
183
198
215
140
87
164
207
67
49
230
27
214
124
78
226
225
137
98
45
166
201
235
102
22
181
125
152
70
209
187
228
220
202
23
107
82
147
133
180
62
190
19
81
73
91
146
143
17
177
28
126
55
54
200
148
195
29
61
92
116
86
108
64
85
111
51
37
216
229
74
160
122
178
7
232
71
165
38
110
89
142
158
88
130
65
127
118
40
48
10
222
199
171
33
203
21
24
115
43
50
154
95
109
63
192
150
34
117
223
157
96
205
204
179
134
168
11
191
41
77
227
75
131
94
9
112
18
151
139
35
132
182
233
31
25
170
218
162
58
103
44
72
80
193
66
128
153
121
169
149
106
217
224
210
194
113
197
39
184
76
172
57
161
159
221
156
26
68
83
53
47
136
90
36
208
16
189
144
213
119
79
188
231
167
174
104
123
145
186
114
20
56
42
155
138
176
93
97
206
173
99
135
129
32
60
163
15
120
185
8
69
141
212
84
5
196
100
13
105
4
6
12
30
14
175
59
46
219
3
52
2

> <PUBCHEM_MMFF94_PARTIAL_CHARGES>
28
1 -0.18
10 0.18
11 0.41
12 0.11
13 -0.14
14 -0.15
15 -0.04
16 0.18
17 -0.15
18 0.46
19 -0.15
2 -0.52
20 -0.15
21 -0.15
22 0.28
29 0.36
3 -0.02
32 0.15
33 0.15
36 0.15
37 0.15
38 0.15
4 -0.56
5 -0.84
6 -0.41
7 0.21
8 0.26
9 0.26

> <PUBCHEM_EFFECTIVE_ROTOR_COUNT>
7.8

> <PUBCHEM_PHARMACOPHORE_FEATURES>
8
1 2 acceptor
1 4 acceptor
1 5 cation
1 5 donor
1 6 acceptor
4 2 7 8 9 rings
5 3 6 12 14 15 rings
6 13 16 17 19 20 21 rings

> <PUBCHEM_HEAVY_ATOM_COUNT>
22

> <PUBCHEM_ATOM_DEF_STEREO_COUNT>
0

> <PUBCHEM_ATOM_UDEF_STEREO_COUNT>
0

> <PUBCHEM_BOND_DEF_STEREO_COUNT>
0

> <PUBCHEM_BOND_UDEF_STEREO_COUNT>
0

> <PUBCHEM_ISOTOPIC_ATOM_COUNT>
0

> <PUBCHEM_COMPONENT_COUNT>
1

> <PUBCHEM_CACTVS_TAUTO_COUNT>
1

> <PUBCHEM_CONFORMER_ID>
0362537000000001

> <PUBCHEM_MMFF94_ENERGY>
50.9441

> <PUBCHEM_FEATURE_SELFOVERLAP>
40.597

> <PUBCHEM_SHAPE_FINGERPRINT>
10382601 240 18337108951979683287
10906281 52 18340211894801613332
12390115 104 18338810020858328663
12403260 363 18192984053072780006
12623949 98 12901818368837345960
12633257 1 18116131433460862388
12895836 83 16845566526645798565
13583140 156 15792551076343934660
14251764 30 13046209538790037064
15238133 3 18336549417195565508
15295992 7 18337110180482618512
15880784 105 12540691509698036892
18222031 100 9079112241693888158
19784866 9 18339356375121382859
21033648 29 17844515812081739640
21041028 32 17903908955574921686
21401589 2 18337949098995768729
21403212 168 18411976932573082077
21524375 3 18334848459115703278
21731228 192 18261390091432160358
22182937 141 18265331892157149826
22224240 67 18260830406428986747
23559900 14 18343013429175662018
23845131 108 18260546719523727955
2838139 119 17774999115483623329
314194 84 8646481955378406589
3680242 22 18336539435311410648
392239 28 18263937703635734939
4340502 62 18261685792073577203
474 4 18411416211185051543
5104073 3 18189603021021762984
5385378 56 18337111159914997386
58807428 26 18187080663299897427
59124914 9 18342457032403571808
6328613 192 18265053712449620708
633830 44 18342735221603674726
7226269 152 18272076228522366672
81228 2 17245540445379873294
9709674 26 18194396921815597342

> <PUBCHEM_SHAPE_MULTIPOLES>
427.05
12.12
3.37
1.22
5.83
1.58
0.17
-11.25
4.25
-0.35
1.09
1.19
0.1
-0.93

> <PUBCHEM_SHAPE_SELFOVERLAP>
893.922

> <PUBCHEM_SHAPE_VOLUME>
243.8

> <PUBCHEM_COORDINATE_TYPE>
2
5
10

$$$$
