71694056
  -OEChem-12032416273D

 48 50  0     1  0  0  0  0  0999 V2000
    5.6238   -2.5758    1.0891 F   0  0  0  0  0  0  0  0  0  0  0  0
    4.5904   -3.4594   -0.6005 F   0  0  0  0  0  0  0  0  0  0  0  0
    5.9572   -1.7976   -0.9136 F   0  0  0  0  0  0  0  0  0  0  0  0
    1.0415    3.7356   -1.4039 O   0  0  0  0  0  0  0  0  0  0  0  0
    0.4625    5.0499    0.9663 O   0  0  0  0  0  0  0  0  0  0  0  0
   -5.4686   -1.5692    1.7508 O   0  0  0  0  0  0  0  0  0  0  0  0
   -1.5123    1.3066   -0.5553 N   0  0  0  0  0  0  0  0  0  0  0  0
    2.8573   -1.6688    0.9139 N   0  0  0  0  0  0  0  0  0  0  0  0
   -0.1296    1.7830   -0.6326 C   0  0  2  0  0  0  0  0  0  0  0  0
    0.6307    1.3927    0.6726 C   0  0  2  0  0  0  0  0  0  0  0  0
   -0.1069    3.3194   -0.6663 C   0  0  1  0  0  0  0  0  0  0  0  0
    1.0393    2.7228    1.3349 C   0  0  0  0  0  0  0  0  0  0  0  0
    0.0197    3.7182    0.8007 C   0  0  1  0  0  0  0  0  0  0  0  0
    1.7973    0.4541    0.4505 C   0  0  0  0  0  0  0  0  0  0  0  0
   -1.5904   -0.1140   -0.8644 C   0  0  0  0  0  0  0  0  0  0  0  0
    2.8543    0.8088   -0.3805 C   0  0  0  0  0  0  0  0  0  0  0  0
    1.8461   -0.7848    1.0688 C   0  0  0  0  0  0  0  0  0  0  0  0
   -3.0029   -0.6288   -0.7829 C   0  0  0  0  0  0  0  0  0  0  0  0
    3.9127   -0.0740   -0.5651 C   0  0  0  0  0  0  0  0  0  0  0  0
    3.8669   -1.2893    0.0987 C   0  0  0  0  0  0  0  0  0  0  0  0
   -3.5891   -0.8627    0.4610 C   0  0  0  0  0  0  0  0  0  0  0  0
   -3.7252   -0.8724   -1.9513 C   0  0  0  0  0  0  0  0  0  0  0  0
    4.9853   -2.2621   -0.0763 C   0  0  0  0  0  0  0  0  0  0  0  0
   -4.8976   -1.3402    0.5368 C   0  0  0  0  0  0  0  0  0  0  0  0
   -5.0335   -1.3501   -1.8754 C   0  0  0  0  0  0  0  0  0  0  0  0
   -5.6198   -1.5838   -0.6315 C   0  0  0  0  0  0  0  0  0  0  0  0
   -6.8091   -2.0584    1.7556 C   0  0  0  0  0  0  0  0  0  0  0  0
    0.3519    1.3875   -1.5359 H   0  0  0  0  0  0  0  0  0  0  0  0
   -0.0659    0.9044    1.3701 H   0  0  0  0  0  0  0  0  0  0  0  0
   -0.9792    3.7807   -1.1409 H   0  0  0  0  0  0  0  0  0  0  0  0
    1.0067    2.6600    2.4285 H   0  0  0  0  0  0  0  0  0  0  0  0
    2.0577    3.0385    1.0776 H   0  0  0  0  0  0  0  0  0  0  0  0
   -0.9413    3.5972    1.3151 H   0  0  0  0  0  0  0  0  0  0  0  0
   -2.0810    1.8181   -1.2308 H   0  0  0  0  0  0  0  0  0  0  0  0
    0.9180    3.4459   -2.3239 H   0  0  0  0  0  0  0  0  0  0  0  0
   -0.9821   -0.7085   -0.1727 H   0  0  0  0  0  0  0  0  0  0  0  0
   -1.1910   -0.3093   -1.8683 H   0  0  0  0  0  0  0  0  0  0  0  0
    0.6041    5.1948    1.9173 H   0  0  0  0  0  0  0  0  0  0  0  0
    2.8725    1.7659   -0.8925 H   0  0  0  0  0  0  0  0  0  0  0  0
    1.0527   -1.1211    1.7289 H   0  0  0  0  0  0  0  0  0  0  0  0
    4.7373    0.2017   -1.2132 H   0  0  0  0  0  0  0  0  0  0  0  0
   -3.0306   -0.6754    1.3751 H   0  0  0  0  0  0  0  0  0  0  0  0
   -3.2820   -0.6928   -2.9271 H   0  0  0  0  0  0  0  0  0  0  0  0
   -5.5952   -1.5391   -2.7857 H   0  0  0  0  0  0  0  0  0  0  0  0
   -6.6390   -1.9545   -0.6453 H   0  0  0  0  0  0  0  0  0  0  0  0
   -7.1035   -2.1840    2.8027 H   0  0  0  0  0  0  0  0  0  0  0  0
   -6.8794   -3.0442    1.2834 H   0  0  0  0  0  0  0  0  0  0  0  0
   -7.5028   -1.3356    1.3129 H   0  0  0  0  0  0  0  0  0  0  0  0
  1 23  1  0  0  0  0
  2 23  1  0  0  0  0
  3 23  1  0  0  0  0
  4 11  1  0  0  0  0
  4 35  1  0  0  0  0
  5 13  1  0  0  0  0
  5 38  1  0  0  0  0
  6 24  1  0  0  0  0
  6 27  1  0  0  0  0
  7  9  1  0  0  0  0
  7 15  1  0  0  0  0
  7 34  1  0  0  0  0
  8 17  1  0  0  0  0
  8 20  2  0  0  0  0
  9 10  1  0  0  0  0
  9 11  1  0  0  0  0
  9 28  1  0  0  0  0
 10 12  1  0  0  0  0
 10 14  1  0  0  0  0
 10 29  1  0  0  0  0
 11 13  1  0  0  0  0
 11 30  1  0  0  0  0
 12 13  1  0  0  0  0
 12 31  1  0  0  0  0
 12 32  1  0  0  0  0
 13 33  1  0  0  0  0
 14 16  1  0  0  0  0
 14 17  2  0  0  0  0
 15 18  1  0  0  0  0
 15 36  1  0  0  0  0
 15 37  1  0  0  0  0
 16 19  2  0  0  0  0
 16 39  1  0  0  0  0
 17 40  1  0  0  0  0
 18 21  2  0  0  0  0
 18 22  1  0  0  0  0
 19 20  1  0  0  0  0
 19 41  1  0  0  0  0
 20 23  1  0  0  0  0
 21 24  1  0  0  0  0
 21 42  1  0  0  0  0
 22 25  2  0  0  0  0
 22 43  1  0  0  0  0
 24 26  2  0  0  0  0
 25 26  1  0  0  0  0
 25 44  1  0  0  0  0
 26 45  1  0  0  0  0
 27 46  1  0  0  0  0
 27 47  1  0  0  0  0
 27 48  1  0  0  0  0
M  END
> <PUBCHEM_COMPOUND_CID>
71694056

> <PUBCHEM_CONFORMER_RMSD>
0.8

> <PUBCHEM_CONFORMER_DIVERSEORDER>
3
162
149
77
82
64
110
206
76
193
187
48
81
131
174
96
40
178
142
175
105
17
184
123
158
201
185
181
177
27
192
203
128
172
124
75
145
94
54
113
191
137
207
107
101
111
33
143
166
196
88
74
121
53
194
104
120
24
138
126
171
119
80
155
195
100
97
50
151
179
202
182
14
98
61
83
118
159
117
200
164
26
8
36
63
56
165
44
70
180
108
95
205
16
132
45
160
39
21
69
146
22
103
122
84
190
189
30
161
127
139
62
152
204
133
163
197
176
198
65
170
12
153
52
136
99
66
147
169
112
168
173
25
92
148
5
150
199
51
46
79
144
188
68
134
37
86
60
140
10
109
78
125
154
141
42
32
93
15
67
13
58
183
9
156
106
23
71
114
43
11
129
6
72
116
135
35
47
115
31
167
7
59
102
91
18
55
130
34
89
157
38
73
49
85
186
29
41
90
57
4
20
28
2
19
1
87

> <PUBCHEM_MMFF94_PARTIAL_CHARGES>
36
1 -0.34
10 0.14
11 0.28
13 0.28
14 -0.14
15 0.41
16 -0.15
17 0.16
18 -0.14
19 -0.15
2 -0.34
20 0.17
21 -0.15
22 -0.15
23 1.16
24 0.08
25 -0.15
26 -0.15
27 0.28
3 -0.34
34 0.36
35 0.4
38 0.4
39 0.15
4 -0.68
40 0.15
41 0.15
42 0.15
43 0.15
44 0.15
45 0.15
5 -0.68
6 -0.36
7 -0.9
8 -0.62
9 0.27

> <PUBCHEM_EFFECTIVE_ROTOR_COUNT>
7

> <PUBCHEM_PHARMACOPHORE_FEATURES>
11
1 4 acceptor
1 4 donor
1 5 acceptor
1 5 donor
1 6 acceptor
1 7 cation
1 7 donor
1 8 acceptor
5 9 10 11 12 13 rings
6 18 21 22 24 25 26 rings
6 8 14 16 17 19 20 rings

> <PUBCHEM_HEAVY_ATOM_COUNT>
27

> <PUBCHEM_ATOM_DEF_STEREO_COUNT>
4

> <PUBCHEM_ATOM_UDEF_STEREO_COUNT>
0

> <PUBCHEM_BOND_DEF_STEREO_COUNT>
0

> <PUBCHEM_BOND_UDEF_STEREO_COUNT>
0

> <PUBCHEM_ISOTOPIC_ATOM_COUNT>
0

> <PUBCHEM_COMPONENT_COUNT>
1

> <PUBCHEM_CACTVS_TAUTO_COUNT>
1

> <PUBCHEM_CONFORMER_ID>
0445F6E800000003

> <PUBCHEM_MMFF94_ENERGY>
77.7649

> <PUBCHEM_FEATURE_SELFOVERLAP>
55.831

> <PUBCHEM_SHAPE_FINGERPRINT>
10319926 262 14979964700434057447
10764073 3 14546518374416059244
10928967 22 18339911662954329895
11049842 53 15217467883825474405
11809386 21 17974843978817546242
11991303 11 17829896429958059381
12107183 9 18201729427511563185
12128747 34 14547361742741811254
12342043 65 17823426058090745523
12422481 6 17489031435646458375
12553582 1 18411971477384178975
12633257 1 16415476064792858183
12788726 201 17905027180506893353
13103583 49 16917064473317789943
13533116 47 18193279818170257115
13631057 29 18339073767122865698
13673619 4 17894636972171736755
13911852 28 18341890771104445671
13955234 65 18051977214539114329
14251764 30 18334019401837083891
14739800 52 15768071652695307009
15042514 8 18197500623438242969
15081414 286 18338794636428081128
15188451 53 16414899955645387151
16992787 43 18267593592646549012
17492 89 18196933276197868590
17686467 74 18335130957523342282
1813 80 18272941526339039669
20775438 99 17689689267085104151
20775530 9 18410284792171348054
21120745 212 18268440048885183012
21716022 299 18042710418765541900
22033318 11 17913243990511302305
22849341 161 18272377498718091737
22950370 63 18412266125004279623
23559900 14 17459180932609419831
314194 84 18340203097906666399
329604 57 18260548896892512790
3421961 26 18270109231556902816
345986 75 17989495133848935257
437815 12 18411130317182716389
46194498 28 17096652187270107621
463206 1 18410288142251919342
5486654 36 18335704910550089953
621550 5 18113052744767893461
6695519 79 16627672949212276058
6823239 73 16660917911295045957
70251023 43 18410579449009267530
7970288 3 18413383246167638583
8863177 126 18115030839427988387

> <PUBCHEM_SHAPE_MULTIPOLES>
506.26
13.76
4.84
1.6
10.79
5.68
0.02
-19.01
-1.6
-5.75
-0.71
2.12
-0.19
0.68

> <PUBCHEM_SHAPE_SELFOVERLAP>
1082.788

> <PUBCHEM_SHAPE_VOLUME>
283.5

> <PUBCHEM_COORDINATE_TYPE>
2
5
10

$$$$
