11913177
  -OEChem-12032416153D

 66 69  0     1  0  0  0  0  0999 V2000
   -6.4233    3.3903   -0.2242 F   0  0  0  0  0  0  0  0  0  0  0  0
   -5.8928    2.7298    1.7724 F   0  0  0  0  0  0  0  0  0  0  0  0
   -4.3636    3.5411    0.4564 F   0  0  0  0  0  0  0  0  0  0  0  0
    4.4551   -2.6400    0.7703 O   0  0  0  0  0  0  0  0  0  0  0  0
   -3.3023   -3.6181   -0.2257 O   0  0  0  0  0  0  0  0  0  0  0  0
   -1.2178   -3.1178    0.6390 N   0  0  0  0  0  0  0  0  0  0  0  0
    4.1789   -1.2323   -1.0582 N   0  0  0  0  0  0  0  0  0  0  0  0
   -2.9519   -1.5202    0.7003 N   0  0  0  0  0  0  0  0  0  0  0  0
    1.5984   -3.3461    0.0131 C   0  0  1  0  0  0  0  0  0  0  0  0
    0.9818   -1.9903    0.4483 C   0  0  2  0  0  0  0  0  0  0  0  0
    0.5473   -4.2756   -0.6205 C   0  0  0  0  0  0  0  0  0  0  0  0
   -0.2538   -2.2464    1.3275 C   0  0  0  0  0  0  0  0  0  0  0  0
   -0.6791   -4.4299    0.2781 C   0  0  0  0  0  0  0  0  0  0  0  0
    0.6264   -1.0622   -0.7189 C   0  0  0  0  0  0  0  0  0  0  0  0
    2.8048   -3.1872   -0.9118 C   0  0  0  0  0  0  0  0  0  0  0  0
    0.1193    0.2746   -0.2200 C   0  0  0  0  0  0  0  0  0  0  0  0
    3.8999   -2.3506   -0.2861 C   0  0  0  0  0  0  0  0  0  0  0  0
   -2.5613   -2.8087    0.3378 C   0  0  0  0  0  0  0  0  0  0  0  0
    5.1806   -0.2546   -0.6989 C   0  0  0  0  0  0  0  0  0  0  0  0
   -3.9315   -0.7106    0.0735 C   0  0  0  0  0  0  0  0  0  0  0  0
    4.6219    0.8240    0.1833 C   0  0  0  0  0  0  0  0  0  0  0  0
    4.0638    2.0010   -0.3420 C   0  0  0  0  0  0  0  0  0  0  0  0
   -4.2028    0.5654    0.5672 C   0  0  0  0  0  0  0  0  0  0  0  0
   -4.6246   -1.1904   -1.0377 C   0  0  0  0  0  0  0  0  0  0  0  0
    4.6764    0.6156    1.5618 C   0  0  0  0  0  0  0  0  0  0  0  0
    3.5536    2.9800    0.5435 C   0  0  0  0  0  0  0  0  0  0  0  0
   -5.1674    1.3616   -0.0504 C   0  0  0  0  0  0  0  0  0  0  0  0
   -5.5891   -0.3943   -1.6554 C   0  0  0  0  0  0  0  0  0  0  0  0
    4.0008    2.2277   -1.7266 C   0  0  0  0  0  0  0  0  0  0  0  0
    4.1744    1.5782    2.4325 C   0  0  0  0  0  0  0  0  0  0  0  0
    3.6164    2.7533    1.9281 C   0  0  0  0  0  0  0  0  0  0  0  0
   -5.8605    0.8817   -1.1616 C   0  0  0  0  0  0  0  0  0  0  0  0
    2.9954    4.1569    0.0184 C   0  0  0  0  0  0  0  0  0  0  0  0
   -5.4579    2.7255    0.4774 C   0  0  0  0  0  0  0  0  0  0  0  0
    3.4429    3.4029   -2.2308 C   0  0  0  0  0  0  0  0  0  0  0  0
    2.9412    4.3657   -1.3600 C   0  0  0  0  0  0  0  0  0  0  0  0
    1.9505   -3.8403    0.9309 H   0  0  0  0  0  0  0  0  0  0  0  0
    1.7185   -1.4702    1.0759 H   0  0  0  0  0  0  0  0  0  0  0  0
    0.2353   -3.8762   -1.5935 H   0  0  0  0  0  0  0  0  0  0  0  0
    0.9843   -5.2636   -0.8078 H   0  0  0  0  0  0  0  0  0  0  0  0
    0.0550   -2.7879    2.2320 H   0  0  0  0  0  0  0  0  0  0  0  0
   -0.6851   -1.3171    1.6921 H   0  0  0  0  0  0  0  0  0  0  0  0
   -0.4126   -4.9461    1.2079 H   0  0  0  0  0  0  0  0  0  0  0  0
   -1.4310   -5.0414   -0.2298 H   0  0  0  0  0  0  0  0  0  0  0  0
    1.5033   -0.8651   -1.3391 H   0  0  0  0  0  0  0  0  0  0  0  0
   -0.1254   -1.5120   -1.3766 H   0  0  0  0  0  0  0  0  0  0  0  0
    3.2463   -4.1724   -1.1114 H   0  0  0  0  0  0  0  0  0  0  0  0
    2.5028   -2.7974   -1.8899 H   0  0  0  0  0  0  0  0  0  0  0  0
    0.7916    0.7064    0.5285 H   0  0  0  0  0  0  0  0  0  0  0  0
    0.0645    0.9809   -1.0560 H   0  0  0  0  0  0  0  0  0  0  0  0
   -0.8844    0.2184    0.2028 H   0  0  0  0  0  0  0  0  0  0  0  0
    3.6704   -1.0740   -1.9225 H   0  0  0  0  0  0  0  0  0  0  0  0
   -2.4949   -1.0814    1.4910 H   0  0  0  0  0  0  0  0  0  0  0  0
    5.6410    0.1280   -1.6138 H   0  0  0  0  0  0  0  0  0  0  0  0
    5.9945   -0.7722   -0.1742 H   0  0  0  0  0  0  0  0  0  0  0  0
   -3.6637    0.9432    1.4332 H   0  0  0  0  0  0  0  0  0  0  0  0
   -4.4420   -2.1583   -1.4867 H   0  0  0  0  0  0  0  0  0  0  0  0
    5.1119   -0.2892    1.9768 H   0  0  0  0  0  0  0  0  0  0  0  0
   -6.1246   -0.7647   -2.5248 H   0  0  0  0  0  0  0  0  0  0  0  0
    4.3592    1.5086   -2.4563 H   0  0  0  0  0  0  0  0  0  0  0  0
    4.2178    1.4159    3.5056 H   0  0  0  0  0  0  0  0  0  0  0  0
    3.2301    3.4921    2.6273 H   0  0  0  0  0  0  0  0  0  0  0  0
   -6.6142    1.4873   -1.6572 H   0  0  0  0  0  0  0  0  0  0  0  0
    2.5967    4.9229    0.6803 H   0  0  0  0  0  0  0  0  0  0  0  0
    3.3962    3.5648   -3.3039 H   0  0  0  0  0  0  0  0  0  0  0  0
    2.5059    5.2797   -1.7533 H   0  0  0  0  0  0  0  0  0  0  0  0
  1 34  1  0  0  0  0
  2 34  1  0  0  0  0
  3 34  1  0  0  0  0
  4 17  2  0  0  0  0
  5 18  2  0  0  0  0
  6 12  1  0  0  0  0
  6 13  1  0  0  0  0
  6 18  1  0  0  0  0
  7 17  1  0  0  0  0
  7 19  1  0  0  0  0
  7 52  1  0  0  0  0
  8 18  1  0  0  0  0
  8 20  1  0  0  0  0
  8 53  1  0  0  0  0
  9 10  1  0  0  0  0
  9 11  1  0  0  0  0
  9 15  1  0  0  0  0
  9 37  1  0  0  0  0
 10 12  1  0  0  0  0
 10 14  1  0  0  0  0
 10 38  1  0  0  0  0
 11 13  1  0  0  0  0
 11 39  1  0  0  0  0
 11 40  1  0  0  0  0
 12 41  1  0  0  0  0
 12 42  1  0  0  0  0
 13 43  1  0  0  0  0
 13 44  1  0  0  0  0
 14 16  1  0  0  0  0
 14 45  1  0  0  0  0
 14 46  1  0  0  0  0
 15 17  1  0  0  0  0
 15 47  1  0  0  0  0
 15 48  1  0  0  0  0
 16 49  1  0  0  0  0
 16 50  1  0  0  0  0
 16 51  1  0  0  0  0
 19 21  1  0  0  0  0
 19 54  1  0  0  0  0
 19 55  1  0  0  0  0
 20 23  1  0  0  0  0
 20 24  2  0  0  0  0
 21 22  1  0  0  0  0
 21 25  2  0  0  0  0
 22 26  1  0  0  0  0
 22 29  2  0  0  0  0
 23 27  2  0  0  0  0
 23 56  1  0  0  0  0
 24 28  1  0  0  0  0
 24 57  1  0  0  0  0
 25 30  1  0  0  0  0
 25 58  1  0  0  0  0
 26 31  1  0  0  0  0
 26 33  2  0  0  0  0
 27 32  1  0  0  0  0
 27 34  1  0  0  0  0
 28 32  2  0  0  0  0
 28 59  1  0  0  0  0
 29 35  1  0  0  0  0
 29 60  1  0  0  0  0
 30 31  2  0  0  0  0
 30 61  1  0  0  0  0
 31 62  1  0  0  0  0
 32 63  1  0  0  0  0
 33 36  1  0  0  0  0
 33 64  1  0  0  0  0
 35 36  2  0  0  0  0
 35 65  1  0  0  0  0
 36 66  1  0  0  0  0
M  END
> <PUBCHEM_COMPOUND_CID>
11913177

> <PUBCHEM_CONFORMER_RMSD>
1.6

> <PUBCHEM_CONFORMER_DIVERSEORDER>
2
78
71
55
70
117
51
45
94
20
28
34
81
14
62
80
83
27
58
110
59
107
100
40
69
56
89
108
109
77
74
102
91
90
37
9
88
115
67
92
17
105
86
103
41
32
53
65
42
111
93
112
26
116
97
46
106
22
5
24
85
79
82
68
61
72
38
54
16
114
84
52
49
31
87
35
98
25
63
3
18
101
10
48
95
104
57
43
1
96
75
21
44
29
30
47
64
113
7
66
73
50
76
4
6
11
19
60
36
23
13
15
99
8
12
39
33

> <PUBCHEM_MMFF94_PARTIAL_CHARGES>
42
1 -0.34
12 0.3
13 0.3
15 0.06
17 0.57
18 0.69
19 0.44
2 -0.34
20 0.12
21 -0.14
23 -0.15
24 -0.15
25 -0.15
27 -0.14
28 -0.15
29 -0.15
3 -0.34
30 -0.15
31 -0.15
32 -0.15
33 -0.15
34 1.16
35 -0.15
36 -0.15
4 -0.57
5 -0.57
52 0.37
53 0.37
56 0.15
57 0.15
58 0.15
59 0.15
6 -0.66
60 0.15
61 0.15
62 0.15
63 0.15
64 0.15
65 0.15
66 0.15
7 -0.73
8 -0.55

> <PUBCHEM_EFFECTIVE_ROTOR_COUNT>
11.2

> <PUBCHEM_PHARMACOPHORE_FEATURES>
9
1 16 hydrophobe
1 4 acceptor
1 5 acceptor
1 7 donor
1 8 donor
6 20 23 24 27 28 32 rings
6 21 22 25 26 30 31 rings
6 22 26 29 33 35 36 rings
6 6 9 10 11 12 13 rings

> <PUBCHEM_HEAVY_ATOM_COUNT>
36

> <PUBCHEM_ATOM_DEF_STEREO_COUNT>
2

> <PUBCHEM_ATOM_UDEF_STEREO_COUNT>
0

> <PUBCHEM_BOND_DEF_STEREO_COUNT>
0

> <PUBCHEM_BOND_UDEF_STEREO_COUNT>
0

> <PUBCHEM_ISOTOPIC_ATOM_COUNT>
0

> <PUBCHEM_COMPONENT_COUNT>
1

> <PUBCHEM_CACTVS_TAUTO_COUNT>
4

> <PUBCHEM_CONFORMER_ID>
00B5C7D900000002

> <PUBCHEM_MMFF94_ENERGY>
91.0388

> <PUBCHEM_FEATURE_SELFOVERLAP>
45.698

> <PUBCHEM_SHAPE_FINGERPRINT>
10439779 11 18411130330163063978
10556698 54 17845916495280073777
10811444 77 18409725132162875484
11331351 85 17329419550126936787
12107183 9 18261095401457934058
12422481 6 17458891712925927359
12925494 130 18411136922821441953
13617811 41 17692241259384842335
14251764 38 18337675333448541254
14705955 166 17172097445601039202
14790565 3 18337958990390347447
15320291 9 17975129061049898821
15320467 1 18194122919554694613
16112460 7 18127139571969025921
16708801 149 18264475359872368797
19302320 297 18192158092301648507
20691028 202 18342182120896648897
20715895 44 18411692210484992786
21987440 362 18050572039438790580
23398203 216 18338535104956055945
23559900 14 18411986888333660878
241686 156 18409168813787178661
3298306 158 18199185281436436034
3493558 16 18412829100764577361
376196 1 18410575080516948131
4066623 53 17693959396943765694
4173938 77 17909287792707353291
4487111 67 17472422530804098972
508180 173 18267888128592127646
550186 72 17762622093842885567
550186 83 17240475914723685988
6086070 43 18411423929927766830
6371009 1 18337654412942397797

> <PUBCHEM_SHAPE_MULTIPOLES>
692.36
15.19
7.02
1.68
16.28
0.46
0.17
-13.87
-0.54
-0.54
-0.44
-1.48
-1.28
-0.98

> <PUBCHEM_SHAPE_SELFOVERLAP>
1485.959

> <PUBCHEM_SHAPE_VOLUME>
382

> <PUBCHEM_COORDINATE_TYPE>
2
5
10

$$$$
