7161596
  -OEChem-12032416373D

 47 49  0     1  0  0  0  0  0999 V2000
    2.9347   -0.5078   -1.3244 S   0  0  0  0  0  0  0  0  0  0  0  0
   -6.1380   -0.1691   -1.7158 F   0  0  0  0  0  0  0  0  0  0  0  0
    2.9654    0.0125   -2.6759 O   0  0  0  0  0  0  0  0  0  0  0  0
    3.5314   -1.7813   -0.9798 O   0  0  0  0  0  0  0  0  0  0  0  0
    0.2057   -3.3687    1.0255 O   0  0  0  0  0  0  0  0  0  0  0  0
    0.2973   -2.8078   -1.2137 O   0  0  0  0  0  0  0  0  0  0  0  0
   -2.6170   -0.4908    2.4259 O   0  0  0  0  0  0  0  0  0  0  0  0
    1.3197   -0.4749   -0.7654 N   0  0  1  0  0  0  0  0  0  0  0  0
   -1.1242    0.0085    0.6962 N   0  0  0  0  0  0  0  0  0  0  0  0
    1.0206   -1.2506    0.4700 C   0  0  1  0  0  0  0  0  0  0  0  0
    0.0326   -0.5495    1.3977 C   0  0  0  0  0  0  0  0  0  0  0  0
    0.6146    0.8285   -0.8746 C   0  0  0  0  0  0  0  0  0  0  0  0
   -0.8701    0.6163   -0.6145 C   0  0  0  0  0  0  0  0  0  0  0  0
    0.4716   -2.5485   -0.0307 C   0  0  0  0  0  0  0  0  0  0  0  0
   -2.3720    0.0092    1.3293 C   0  0  0  0  0  0  0  0  0  0  0  0
    3.8627    0.6779   -0.3574 C   0  0  0  0  0  0  0  0  0  0  0  0
   -3.4951    0.6606    0.6372 C   0  0  0  0  0  0  0  0  0  0  0  0
    4.4633    0.2500    0.8015 C   0  0  0  0  0  0  0  0  0  0  0  0
    3.9399    1.9729   -0.8091 C   0  0  0  0  0  0  0  0  0  0  0  0
   -4.2984   -0.0787   -0.2273 C   0  0  0  0  0  0  0  0  0  0  0  0
   -3.7499    2.0129    0.8505 C   0  0  0  0  0  0  0  0  0  0  0  0
    5.1862    1.1745    1.5555 C   0  0  0  0  0  0  0  0  0  0  0  0
    4.6628    2.8973   -0.0551 C   0  0  0  0  0  0  0  0  0  0  0  0
   -0.3287   -4.6526    0.6875 C   0  0  0  0  0  0  0  0  0  0  0  0
    5.2859    2.4981    1.1272 C   0  0  0  0  0  0  0  0  0  0  0  0
   -5.3637    0.5384   -0.8829 C   0  0  0  0  0  0  0  0  0  0  0  0
   -4.8152    2.6300    0.1948 C   0  0  0  0  0  0  0  0  0  0  0  0
   -5.6220    1.8928   -0.6720 C   0  0  0  0  0  0  0  0  0  0  0  0
    1.9389   -1.4623    1.0272 H   0  0  0  0  0  0  0  0  0  0  0  0
   -0.3016   -1.2099    2.2051 H   0  0  0  0  0  0  0  0  0  0  0  0
    0.5289    0.3005    1.8836 H   0  0  0  0  0  0  0  0  0  0  0  0
    0.7398    1.2378   -1.8822 H   0  0  0  0  0  0  0  0  0  0  0  0
    1.0290    1.5422   -0.1544 H   0  0  0  0  0  0  0  0  0  0  0  0
   -1.3936    1.5741   -0.6852 H   0  0  0  0  0  0  0  0  0  0  0  0
   -1.3003   -0.0563   -1.3662 H   0  0  0  0  0  0  0  0  0  0  0  0
    4.3919   -0.7722    1.1570 H   0  0  0  0  0  0  0  0  0  0  0  0
    3.4547    2.3047   -1.7208 H   0  0  0  0  0  0  0  0  0  0  0  0
   -4.1048   -1.1342   -0.3990 H   0  0  0  0  0  0  0  0  0  0  0  0
   -3.1269    2.5958    1.5237 H   0  0  0  0  0  0  0  0  0  0  0  0
    5.6696    0.8643    2.4772 H   0  0  0  0  0  0  0  0  0  0  0  0
    4.7386    3.9286   -0.3872 H   0  0  0  0  0  0  0  0  0  0  0  0
   -1.2868   -4.5393    0.1714 H   0  0  0  0  0  0  0  0  0  0  0  0
   -0.4930   -5.2073    1.6151 H   0  0  0  0  0  0  0  0  0  0  0  0
    0.3819   -5.2073    0.0673 H   0  0  0  0  0  0  0  0  0  0  0  0
    5.8478    3.2182    1.7149 H   0  0  0  0  0  0  0  0  0  0  0  0
   -5.0163    3.6845    0.3588 H   0  0  0  0  0  0  0  0  0  0  0  0
   -6.4513    2.3731   -1.1828 H   0  0  0  0  0  0  0  0  0  0  0  0
  1  3  2  0  0  0  0
  1  4  2  0  0  0  0
  1  8  1  0  0  0  0
  1 16  1  0  0  0  0
  2 26  1  0  0  0  0
  5 14  1  0  0  0  0
  5 24  1  0  0  0  0
  6 14  2  0  0  0  0
  7 15  2  0  0  0  0
  8 10  1  0  0  0  0
  8 12  1  0  0  0  0
  9 11  1  0  0  0  0
  9 13  1  0  0  0  0
  9 15  1  0  0  0  0
 10 11  1  0  0  0  0
 10 14  1  0  0  0  0
 10 29  1  0  0  0  0
 11 30  1  0  0  0  0
 11 31  1  0  0  0  0
 12 13  1  0  0  0  0
 12 32  1  0  0  0  0
 12 33  1  0  0  0  0
 13 34  1  0  0  0  0
 13 35  1  0  0  0  0
 15 17  1  0  0  0  0
 16 18  2  0  0  0  0
 16 19  1  0  0  0  0
 17 20  2  0  0  0  0
 17 21  1  0  0  0  0
 18 22  1  0  0  0  0
 18 36  1  0  0  0  0
 19 23  2  0  0  0  0
 19 37  1  0  0  0  0
 20 26  1  0  0  0  0
 20 38  1  0  0  0  0
 21 27  2  0  0  0  0
 21 39  1  0  0  0  0
 22 25  2  0  0  0  0
 22 40  1  0  0  0  0
 23 25  1  0  0  0  0
 23 41  1  0  0  0  0
 24 42  1  0  0  0  0
 24 43  1  0  0  0  0
 24 44  1  0  0  0  0
 25 45  1  0  0  0  0
 26 28  2  0  0  0  0
 27 28  1  0  0  0  0
 27 46  1  0  0  0  0
 28 47  1  0  0  0  0
M  END
> <PUBCHEM_COMPOUND_CID>
7161596

> <PUBCHEM_CONFORMER_RMSD>
0.8

> <PUBCHEM_CONFORMER_DIVERSEORDER>
1
311
149
101
286
233
302
102
284
74
136
79
271
67
220
138
68
308
85
152
309
207
132
295
82
312
294
321
71
59
317
242
310
167
19
176
189
80
158
330
166
313
319
98
130
217
174
300
243
125
95
29
261
88
209
275
218
212
36
42
23
111
324
269
81
293
222
325
180
131
288
181
259
162
188
206
137
304
70
20
72
246
273
184
63
235
306
329
32
22
318
238
92
84
323
76
173
201
299
248
146
87
48
89
200
157
303
199
151
227
164
282
165
331
134
278
143
128
223
236
314
126
186
228
316
30
279
56
298
182
211
10
159
120
225
2
289
175
97
203
177
83
260
194
230
154
155
229
170
8
315
140
224
244
257
258
171
41
106
103
290
264
9
160
73
99
265
62
27
49
213
13
178
185
148
195
18
187
239
270
53
28
21
35
44
57
115
237
322
141
117
113
50
40
256
328
190
296
205
129
16
255
234
281
276
163
7
94
263
252
142
191
93
105
247
38
277
297
179
202
139
116
31
135
214
11
110
77
221
65
320
121
168
232
266
326
196
12
285
15
245
193
133
305
45
327
272
64
250
219
169
183
301
241
267
54
215
144
86
216
66
91
51
26
4
240
307
24
274
55
192
3
254
161
145
43
5
109
150
78
96
287
280
283
107
25
112
47
231
123
251
61
124
210
104
204
253
90
198
127
226
172
37
147
292
122
33
14
60
208
100
34
249
39
75
197
69
17
262
119
268
114
6
58
156
153
118
52
46
108
291

> <PUBCHEM_MMFF94_PARTIAL_CHARGES>
37
1 1.45
10 0.42
11 0.3
12 0.36
13 0.3
14 0.66
15 0.54
16 -0.01
17 0.09
18 -0.15
19 -0.15
2 -0.19
20 -0.15
21 -0.15
22 -0.15
23 -0.15
24 0.28
25 -0.15
26 0.19
27 -0.15
28 -0.15
3 -0.65
36 0.15
37 0.15
38 0.15
39 0.15
4 -0.65
40 0.15
41 0.15
45 0.15
46 0.15
47 0.15
5 -0.43
6 -0.57
7 -0.57
8 -0.85
9 -0.66

> <PUBCHEM_EFFECTIVE_ROTOR_COUNT>
7.2

> <PUBCHEM_PHARMACOPHORE_FEATURES>
7
1 3 acceptor
1 4 acceptor
1 6 acceptor
1 7 acceptor
6 16 18 19 22 23 25 rings
6 17 20 21 26 27 28 rings
6 8 9 10 11 12 13 rings

> <PUBCHEM_HEAVY_ATOM_COUNT>
28

> <PUBCHEM_ATOM_DEF_STEREO_COUNT>
1

> <PUBCHEM_ATOM_UDEF_STEREO_COUNT>
0

> <PUBCHEM_BOND_DEF_STEREO_COUNT>
0

> <PUBCHEM_BOND_UDEF_STEREO_COUNT>
0

> <PUBCHEM_ISOTOPIC_ATOM_COUNT>
0

> <PUBCHEM_COMPONENT_COUNT>
1

> <PUBCHEM_CACTVS_TAUTO_COUNT>
1

> <PUBCHEM_CONFORMER_ID>
006D46FC00000001

> <PUBCHEM_MMFF94_ENERGY>
66.888

> <PUBCHEM_FEATURE_SELFOVERLAP>
35.54

> <PUBCHEM_SHAPE_FINGERPRINT>
10074138 170 18047733069706633730
10764073 3 14058095569588229043
12422481 6 16950554454837781132
12633257 1 16226053300960246173
12788726 201 17538862668591134794
13103583 49 11314303915362566261
13631057 29 17845079835787703255
13955234 65 18120098282108425955
14251758 9 14490466482860425249
14251764 30 9799697008073120864
14528608 73 18342739589712060437
15463212 79 18410006663538975327
17818456 19 12468640491407753591
20197701 30 18411980273440316858
20511986 3 18129366134623165717
20567600 254 18342733031692781048
20715895 44 18408884001494486384
21033648 29 18337122232235230232
21304303 282 18268131235882496750
22393880 68 18271249296777311695
22950370 63 9583522031236232672
23559900 14 17531545174000429986
34797466 226 17846783992484330365
376196 1 18341901770394429590
4072396 5 17313098640120337372
4340502 62 18412825802208491127
44317340 157 18201449017359875897
465052 167 11602817974210037848
474 4 18202567297984172752
495365 180 18335990757281021554
513202 73 9582423658022593317
633830 44 17558299590037826490
67856867 119 18266453201118525643
8509985 295 16225768518917194860
9981440 41 18334016094922613673

> <PUBCHEM_SHAPE_MULTIPOLES>
533.49
12.95
3.8
1.74
6.28
4.06
-0.13
-12.45
-0.98
-1.01
0.73
-0.42
0.17
0.93

> <PUBCHEM_SHAPE_SELFOVERLAP>
1128.688

> <PUBCHEM_SHAPE_VOLUME>
301.2

> <PUBCHEM_COORDINATE_TYPE>
2
5
10

$$$$
