11943580
  -OEChem-12032416153D

 46 49  0     1  0  0  0  0  0999 V2000
   -4.8117   -1.9993    0.3293 O   0  0  0  0  0  0  0  0  0  0  0  0
   -6.1641   -0.0606    0.7980 O   0  0  0  0  0  0  0  0  0  0  0  0
    3.6802    1.4535   -0.3970 N   0  0  2  0  0  0  0  0  0  0  0  0
   -0.0510    0.8584   -0.3475 N   0  0  0  0  0  0  0  0  0  0  0  0
    3.8619   -0.5024    1.3076 C   0  0  2  0  0  0  0  0  0  0  0  0
    2.3367    1.1358    0.1575 C   0  0  2  0  0  0  0  0  0  0  0  0
    4.5222   -0.8856   -0.0379 C   0  0  2  0  0  0  0  0  0  0  0  0
    2.3899   -0.1224    1.0522 C   0  0  0  0  0  0  0  0  0  0  0  0
    4.5816    0.7571    1.8244 C   0  0  0  0  0  0  0  0  0  0  0  0
    4.2651    0.2564   -1.0500 C   0  0  0  0  0  0  0  0  0  0  0  0
    4.5610    1.8394    0.7316 C   0  0  0  0  0  0  0  0  0  0  0  0
    1.2704    1.0131   -0.9331 C   0  0  0  0  0  0  0  0  0  0  0  0
    4.0548   -2.2103   -0.5609 C   0  0  0  0  0  0  0  0  0  0  0  0
    4.8585   -3.2588   -0.7687 C   0  0  0  0  0  0  0  0  0  0  0  0
   -1.0705    0.7308   -1.3815 C   0  0  0  0  0  0  0  0  0  0  0  0
   -2.4458    0.5549   -0.7946 C   0  0  0  0  0  0  0  0  0  0  0  0
   -2.9141   -0.7274   -0.5316 C   0  0  0  0  0  0  0  0  0  0  0  0
   -3.2228    1.6876   -0.5265 C   0  0  0  0  0  0  0  0  0  0  0  0
   -4.1801   -0.8380    0.0059 C   0  0  0  0  0  0  0  0  0  0  0  0
   -4.5016    1.5478    0.0182 C   0  0  0  0  0  0  0  0  0  0  0  0
   -4.9525    0.2690    0.2734 C   0  0  0  0  0  0  0  0  0  0  0  0
   -6.0679   -1.4991    0.8312 C   0  0  0  0  0  0  0  0  0  0  0  0
    3.9321   -1.3149    2.0393 H   0  0  0  0  0  0  0  0  0  0  0  0
    2.0381    1.9886    0.7857 H   0  0  0  0  0  0  0  0  0  0  0  0
    5.6073   -0.9419    0.1331 H   0  0  0  0  0  0  0  0  0  0  0  0
    1.8496   -0.9673    0.6122 H   0  0  0  0  0  0  0  0  0  0  0  0
    1.9010    0.0956    2.0103 H   0  0  0  0  0  0  0  0  0  0  0  0
    5.6173    0.5208    2.0949 H   0  0  0  0  0  0  0  0  0  0  0  0
    4.0852    1.1262    2.7300 H   0  0  0  0  0  0  0  0  0  0  0  0
    5.2177    0.5411   -1.5172 H   0  0  0  0  0  0  0  0  0  0  0  0
    3.6361   -0.0656   -1.8880 H   0  0  0  0  0  0  0  0  0  0  0  0
    4.2273    2.7938    1.1576 H   0  0  0  0  0  0  0  0  0  0  0  0
    5.5779    2.0241    0.3627 H   0  0  0  0  0  0  0  0  0  0  0  0
    1.4815    0.1528   -1.5786 H   0  0  0  0  0  0  0  0  0  0  0  0
    1.2951    1.9116   -1.5632 H   0  0  0  0  0  0  0  0  0  0  0  0
    3.0021   -2.3242   -0.8064 H   0  0  0  0  0  0  0  0  0  0  0  0
   -0.2581    1.6651    0.2413 H   0  0  0  0  0  0  0  0  0  0  0  0
    4.4585   -4.1882   -1.1592 H   0  0  0  0  0  0  0  0  0  0  0  0
    5.9206   -3.2124   -0.5554 H   0  0  0  0  0  0  0  0  0  0  0  0
   -0.8505   -0.1278   -2.0295 H   0  0  0  0  0  0  0  0  0  0  0  0
   -1.0693    1.6134   -2.0349 H   0  0  0  0  0  0  0  0  0  0  0  0
   -2.3162   -1.6087   -0.7357 H   0  0  0  0  0  0  0  0  0  0  0  0
   -2.8418    2.6839   -0.7358 H   0  0  0  0  0  0  0  0  0  0  0  0
   -5.1131    2.4173    0.2306 H   0  0  0  0  0  0  0  0  0  0  0  0
   -6.1907   -1.8352    1.8672 H   0  0  0  0  0  0  0  0  0  0  0  0
   -6.8797   -1.9192    0.2263 H   0  0  0  0  0  0  0  0  0  0  0  0
  1 19  1  0  0  0  0
  1 22  1  0  0  0  0
  2 21  1  0  0  0  0
  2 22  1  0  0  0  0
  3  6  1  0  0  0  0
  3 10  1  0  0  0  0
  3 11  1  0  0  0  0
  4 12  1  0  0  0  0
  4 15  1  0  0  0  0
  4 37  1  0  0  0  0
  5  7  1  0  0  0  0
  5  8  1  0  0  0  0
  5  9  1  0  0  0  0
  5 23  1  0  0  0  0
  6  8  1  0  0  0  0
  6 12  1  0  0  0  0
  6 24  1  0  0  0  0
  7 10  1  0  0  0  0
  7 13  1  0  0  0  0
  7 25  1  0  0  0  0
  8 26  1  0  0  0  0
  8 27  1  0  0  0  0
  9 11  1  0  0  0  0
  9 28  1  0  0  0  0
  9 29  1  0  0  0  0
 10 30  1  0  0  0  0
 10 31  1  0  0  0  0
 11 32  1  0  0  0  0
 11 33  1  0  0  0  0
 12 34  1  0  0  0  0
 12 35  1  0  0  0  0
 13 14  2  0  0  0  0
 13 36  1  0  0  0  0
 14 38  1  0  0  0  0
 14 39  1  0  0  0  0
 15 16  1  0  0  0  0
 15 40  1  0  0  0  0
 15 41  1  0  0  0  0
 16 17  2  0  0  0  0
 16 18  1  0  0  0  0
 17 19  1  0  0  0  0
 17 42  1  0  0  0  0
 18 20  2  0  0  0  0
 18 43  1  0  0  0  0
 19 21  2  0  0  0  0
 20 21  1  0  0  0  0
 20 44  1  0  0  0  0
 22 45  1  0  0  0  0
 22 46  1  0  0  0  0
M  END
> <PUBCHEM_COMPOUND_CID>
11943580

> <PUBCHEM_CONFORMER_RMSD>
0.8

> <PUBCHEM_CONFORMER_DIVERSEORDER>
1
3
24
10
9
5
22
17
13
11
2
28
26
23
6
4
16
8
25
29
7
18
21
15
27
14
19
20
12

> <PUBCHEM_MMFF94_PARTIAL_CHARGES>
26
1 -0.36
10 0.27
11 0.27
12 0.27
13 -0.29
14 -0.3
15 0.41
16 -0.14
17 -0.15
18 -0.15
19 0.08
2 -0.36
20 -0.15
21 0.08
22 0.56
3 -0.81
36 0.15
37 0.36
38 0.15
39 0.15
4 -0.9
42 0.15
43 0.15
44 0.15
6 0.27
7 0.14

> <PUBCHEM_EFFECTIVE_ROTOR_COUNT>
6.8

> <PUBCHEM_PHARMACOPHORE_FEATURES>
9
1 1 acceptor
1 14 hydrophobe
1 2 acceptor
1 3 cation
1 4 cation
1 4 donor
5 1 2 19 21 22 rings
6 16 17 18 19 20 21 rings
8 3 5 6 7 8 9 10 11 rings

> <PUBCHEM_HEAVY_ATOM_COUNT>
22

> <PUBCHEM_ATOM_DEF_STEREO_COUNT>
3

> <PUBCHEM_ATOM_UDEF_STEREO_COUNT>
0

> <PUBCHEM_BOND_DEF_STEREO_COUNT>
0

> <PUBCHEM_BOND_UDEF_STEREO_COUNT>
0

> <PUBCHEM_ISOTOPIC_ATOM_COUNT>
0

> <PUBCHEM_COMPONENT_COUNT>
1

> <PUBCHEM_CACTVS_TAUTO_COUNT>
1

> <PUBCHEM_CONFORMER_ID>
00B63E9C00000001

> <PUBCHEM_MMFF94_ENERGY>
52.2494

> <PUBCHEM_FEATURE_SELFOVERLAP>
45.826

> <PUBCHEM_SHAPE_FINGERPRINT>
11089746 13 10231761071907368156
11552529 35 17487890327371209879
12107183 9 17911528588250733521
12596602 18 18273216426053181697
12616971 3 16773789273306987932
12633257 1 15482660282470505240
12730499 353 18342176700637033520
12769317 202 11531067174149874838
12778500 126 17775012228081848234
12892183 10 18272365377956820940
12925494 130 18053381003441389057
13073987 5 18201441358858362801
13167823 11 18333448750890827485
13533116 47 18273498961644292250
13551218 46 18411140238557624783
13675066 3 18271799112193552172
13911882 115 18335424603509097778
13914758 101 18260821602220777437
13955234 65 18273207613291888936
1420 369 17967250918744899853
14211702 104 18041570264416228571
14251740 57 18335424556227456334
14251764 30 18188774933699104342
14341114 176 18411985758440491033
14420673 8 18194407680028341207
15348495 7 18202560713561717185
15463212 79 12031782531787640013
15537594 2 17168427056575040721
15799311 1 18264510466777082990
17349148 13 16370727010931144461
1768 124 18265899232306366459
17844677 252 18413394223987599521
17857418 61 17603859031477699065
1813 80 17022904549191776477
18222031 100 17022623078425701725
193927 3 17822019722161502889
21033648 29 16988554685233547873
21065199 12 18413383228786717876
21315759 148 18412263947524341697
21521721 280 18130500938645942256
21968339 14 12107795107926430190
22950370 63 18260271827971908413
23559900 14 18337955580180604788
239999 70 18187081763507448232
268830 7 15841253922506195904
2767999 5 13110967513632579131
2838139 119 10231489467097819675
312425 54 18272096002446152947
3178227 256 18202556303527077184
341906 21 12391499902222139718
3421961 26 18271240513880589774
351380 3 17530962505930839041
465052 167 18200880578549072550
5104073 3 18201721704232132105
542803 24 15123792907174106001
57724786 102 15913045477563791904
5924683 9 17774148150046242087
8509985 295 15554444085407459178
8863177 126 18411139095911883094
960060 61 14345796045649111046

> <PUBCHEM_SHAPE_MULTIPOLES>
431.05
16.22
2.39
1.28
12.46
1.61
0.2
5.33
3.85
-2.21
-0.33
-1
-0.11
1.83

> <PUBCHEM_SHAPE_SELFOVERLAP>
926.047

> <PUBCHEM_SHAPE_VOLUME>
235.3

> <PUBCHEM_COORDINATE_TYPE>
2
5
10

$$$$
