11886032
  -OEChem-12032416393D

 38 41  0     1  0  0  0  0  0999 V2000
    1.9730    0.0327   -1.3284 S   0  0  0  0  0  0  0  0  0  0  0  0
   -3.4385   -0.8486   -0.0703 O   0  0  0  0  0  0  0  0  0  0  0  0
   -2.0644    1.8413   -0.7280 O   0  0  0  0  0  0  0  0  0  0  0  0
   -5.1284    1.0853    0.9664 O   0  0  0  0  0  0  0  0  0  0  0  0
   -0.1843   -1.2743   -0.3082 N   0  0  0  0  0  0  0  0  0  0  0  0
   -0.5132   -2.3208    0.4570 N   0  0  0  0  0  0  0  0  0  0  0  0
    1.7024   -2.1636    0.2648 N   0  0  0  0  0  0  0  0  0  0  0  0
    0.6471   -2.8631    0.8055 N   0  0  0  0  0  0  0  0  0  0  0  0
   -1.6403    0.7000    0.0497 C   0  0  1  0  0  0  0  0  0  0  0  0
   -2.8705    0.1744    0.7625 C   0  0  1  0  0  0  0  0  0  0  0  0
   -1.2307   -0.4244   -0.8813 C   0  0  2  0  0  0  0  0  0  0  0  0
   -3.7592    1.3932    0.8346 C   0  0  1  0  0  0  0  0  0  0  0  0
   -2.5559   -1.1231   -1.1678 C   0  0  0  0  0  0  0  0  0  0  0  0
   -3.4547    2.0856   -0.4735 C   0  0  0  0  0  0  0  0  0  0  0  0
    3.5247    0.1963   -0.4097 C   0  0  0  0  0  0  0  0  0  0  0  0
    3.3082    0.6666    1.0230 C   0  0  0  0  0  0  0  0  0  0  0  0
    4.4335    1.2776   -0.9811 C   0  0  0  0  0  0  0  0  0  0  0  0
    4.6847    1.1715    1.4473 C   0  0  0  0  0  0  0  0  0  0  0  0
    5.4040    1.5765    0.1592 C   0  0  0  0  0  0  0  0  0  0  0  0
    1.1626   -1.1831   -0.4220 C   0  0  0  0  0  0  0  0  0  0  0  0
   -0.8570    1.0417    0.7338 H   0  0  0  0  0  0  0  0  0  0  0  0
   -2.6627   -0.2724    1.7390 H   0  0  0  0  0  0  0  0  0  0  0  0
   -0.8316   -0.0549   -1.8325 H   0  0  0  0  0  0  0  0  0  0  0  0
   -3.4466    2.0255    1.6743 H   0  0  0  0  0  0  0  0  0  0  0  0
   -3.0247   -0.6984   -2.0628 H   0  0  0  0  0  0  0  0  0  0  0  0
   -2.4783   -2.2045   -1.3149 H   0  0  0  0  0  0  0  0  0  0  0  0
   -4.0444    1.6848   -1.3056 H   0  0  0  0  0  0  0  0  0  0  0  0
   -3.6355    3.1636   -0.4255 H   0  0  0  0  0  0  0  0  0  0  0  0
    4.0537   -0.7650   -0.4172 H   0  0  0  0  0  0  0  0  0  0  0  0
    2.9559   -0.1250    1.6914 H   0  0  0  0  0  0  0  0  0  0  0  0
    2.5908    1.4960    1.0717 H   0  0  0  0  0  0  0  0  0  0  0  0
    3.8724    2.1894   -1.2229 H   0  0  0  0  0  0  0  0  0  0  0  0
    4.9576    0.9537   -1.8860 H   0  0  0  0  0  0  0  0  0  0  0  0
    5.2452    0.3739    1.9488 H   0  0  0  0  0  0  0  0  0  0  0  0
    4.6043    2.0074    2.1497 H   0  0  0  0  0  0  0  0  0  0  0  0
    5.6925    2.6324    0.1689 H   0  0  0  0  0  0  0  0  0  0  0  0
    6.3210    0.9868    0.0451 H   0  0  0  0  0  0  0  0  0  0  0  0
   -5.6233    1.9205    0.9107 H   0  0  0  0  0  0  0  0  0  0  0  0
  1 15  1  0  0  0  0
  1 20  1  0  0  0  0
  2 10  1  0  0  0  0
  2 13  1  0  0  0  0
  3  9  1  0  0  0  0
  3 14  1  0  0  0  0
  4 12  1  0  0  0  0
  4 38  1  0  0  0  0
  5  6  1  0  0  0  0
  5 11  1  0  0  0  0
  5 20  1  0  0  0  0
  6  8  2  0  0  0  0
  7  8  1  0  0  0  0
  7 20  2  0  0  0  0
  9 10  1  0  0  0  0
  9 11  1  0  0  0  0
  9 21  1  0  0  0  0
 10 12  1  0  0  0  0
 10 22  1  0  0  0  0
 11 13  1  0  0  0  0
 11 23  1  0  0  0  0
 12 14  1  0  0  0  0
 12 24  1  0  0  0  0
 13 25  1  0  0  0  0
 13 26  1  0  0  0  0
 14 27  1  0  0  0  0
 14 28  1  0  0  0  0
 15 16  1  0  0  0  0
 15 17  1  0  0  0  0
 15 29  1  0  0  0  0
 16 18  1  0  0  0  0
 16 30  1  0  0  0  0
 16 31  1  0  0  0  0
 17 19  1  0  0  0  0
 17 32  1  0  0  0  0
 17 33  1  0  0  0  0
 18 19  1  0  0  0  0
 18 34  1  0  0  0  0
 18 35  1  0  0  0  0
 19 36  1  0  0  0  0
 19 37  1  0  0  0  0
M  END
> <PUBCHEM_COMPOUND_CID>
11886032

> <PUBCHEM_CONFORMER_RMSD>
0.8

> <PUBCHEM_CONFORMER_DIVERSEORDER>
1
50
46
29
8
28
33
12
44
2
54
11
48
51
55
52
41
35
25
39
18
20
15
6
32
40
47
14
23
53
4
5
22
45
13
38
26
42
9
36
30
10
27
24
31
49
19
21
16
43
37
3
34
17
56
7

> <PUBCHEM_MMFF94_PARTIAL_CHARGES>
16
1 -0.29
10 0.28
11 0.26
12 0.28
13 0.28
14 0.28
15 0.23
2 -0.56
20 0.24
3 -0.56
38 0.4
4 -0.68
5 0.31
6 -0.42
7 -0.34
9 0.28

> <PUBCHEM_EFFECTIVE_ROTOR_COUNT>
5.2

> <PUBCHEM_PHARMACOPHORE_FEATURES>
9
1 2 acceptor
1 3 acceptor
1 4 acceptor
1 4 donor
3 5 7 20 cation
5 15 16 17 18 19 rings
5 2 9 10 11 13 rings
5 3 9 10 12 14 rings
5 5 6 7 8 20 rings

> <PUBCHEM_HEAVY_ATOM_COUNT>
20

> <PUBCHEM_ATOM_DEF_STEREO_COUNT>
4

> <PUBCHEM_ATOM_UDEF_STEREO_COUNT>
0

> <PUBCHEM_BOND_DEF_STEREO_COUNT>
0

> <PUBCHEM_BOND_UDEF_STEREO_COUNT>
0

> <PUBCHEM_ISOTOPIC_ATOM_COUNT>
0

> <PUBCHEM_COMPONENT_COUNT>
1

> <PUBCHEM_CACTVS_TAUTO_COUNT>
1

> <PUBCHEM_CONFORMER_ID>
00B55DD000000001

> <PUBCHEM_MMFF94_ENERGY>
46.0604

> <PUBCHEM_FEATURE_SELFOVERLAP>
46.376

> <PUBCHEM_SHAPE_FINGERPRINT>
10465860 71 10375868580375775542
10498660 4 18201434770536851024
10681291 71 18410299107650838552
10692045 39 18270385111235940314
11715629 250 18272370862550618542
12390115 104 18271822227707376777
12596602 18 17023187175462795696
12633257 1 16081379565404582512
12788726 201 17392774969888253154
12892183 10 16081078278065469420
13544653 18 11818997378946568436
14123255 52 18410573963887806172
14178342 30 17968106321553788515
1420 369 11602826799861220808
14251757 17 17203324563492643440
14251764 30 14635421621317171434
14251764 75 18128828455909791185
15209294 21 18411417319360408668
15534591 1 18343863329055278350
1798214 55 18412262822496383652
1813 80 9151175363571211754
18186145 218 18271531914099258894
19784866 240 8214137465367403353
19862831 5 13686303487036775276
20388580 30 9511451230511323754
204376 136 18334579048706907742
20671657 53 10015575099669371942
21069387 34 7925620090757979787
212916 134 18410846690401062112
21401589 2 18272648004227113656
21524375 3 18411979191493667278
21756936 100 18339358677883132430
22079108 93 18412269458247034971
22646028 28 8430311338065218268
23227448 37 18201437038210855733
23402539 116 18196361735481589646
23557571 272 17560525117483795038
23559900 14 17461455628535238663
2838139 119 17489862731225654088
2916195 48 18059849627905359696
3472631 163 18060137643610996157
4028521 119 17917996087665484456
427121 178 18409738335298499362
4340502 62 18187940447702753043
4463277 69 10881408646649572210
469060 322 18191041190515094395
474 4 18408045117219092652
5104073 3 18117287956495069249
5352402 22 14418127405714677872
58807428 26 18114179731248766002
59755656 520 18409167731755964046
633830 44 18413387627339430174
7226269 152 18130780166964653256
7364860 26 18124880053645454718
7808743 9 18263932210341050876
960060 61 11815894570155017112
9981440 41 18336541702943828106

> <PUBCHEM_SHAPE_MULTIPOLES>
377.91
10.27
2.46
1.24
5.09
1.1
0.01
-7.77
-1.93
-0.57
-0.38
0.46
-0.13
-0.15

> <PUBCHEM_SHAPE_SELFOVERLAP>
794.903

> <PUBCHEM_SHAPE_VOLUME>
216.2

> <PUBCHEM_COORDINATE_TYPE>
2
5
10

$$$$
