45784180
  -OEChem-12032416283D

 42 45  0     1  0  0  0  0  0999 V2000
    7.4199    1.6128   -0.8155 Cl  0  0  0  0  0  0  0  0  0  0  0  0
    2.6710   -1.4342    0.5457 O   0  0  0  0  0  0  0  0  0  0  0  0
   -1.8380   -0.1469   -0.0176 N   0  0  1  0  0  0  0  0  0  0  0  0
    2.3293    0.7412    0.0093 N   0  0  0  0  0  0  0  0  0  0  0  0
    0.3412   -0.7249    0.6278 C   0  0  2  0  0  0  0  0  0  0  0  0
   -0.5443   -0.5010   -0.6054 C   0  0  0  0  0  0  0  0  0  0  0  0
   -0.3208    0.1082    1.7391 C   0  0  0  0  0  0  0  0  0  0  0  0
   -1.5173    0.7746    1.0724 C   0  0  0  0  0  0  0  0  0  0  0  0
   -2.7477    0.4403   -0.9901 C   0  0  0  0  0  0  0  0  0  0  0  0
    1.7961   -0.4039    0.3746 C   0  0  0  0  0  0  0  0  0  0  0  0
   -4.1769    0.3970   -0.5184 C   0  0  0  0  0  0  0  0  0  0  0  0
   -4.9097   -0.7891   -0.5569 C   0  0  0  0  0  0  0  0  0  0  0  0
    3.6705    0.4543   -0.0709 C   0  0  0  0  0  0  0  0  0  0  0  0
    3.8836   -0.8765    0.2568 C   0  0  0  0  0  0  0  0  0  0  0  0
   -4.7669    1.5660   -0.0380 C   0  0  0  0  0  0  0  0  0  0  0  0
   -6.2325   -0.8063   -0.1148 C   0  0  0  0  0  0  0  0  0  0  0  0
   -4.2997   -2.0532   -1.0671 C   0  0  0  0  0  0  0  0  0  0  0  0
    4.7716    1.2533   -0.4108 C   0  0  0  0  0  0  0  0  0  0  0  0
    5.1261   -1.4978    0.2766 C   0  0  0  0  0  0  0  0  0  0  0  0
   -6.0898    1.5491    0.4042 C   0  0  0  0  0  0  0  0  0  0  0  0
   -6.8225    0.3628    0.3659 C   0  0  0  0  0  0  0  0  0  0  0  0
    6.0429    0.6612   -0.4021 C   0  0  0  0  0  0  0  0  0  0  0  0
    6.2140   -0.6871   -0.0649 C   0  0  0  0  0  0  0  0  0  0  0  0
    0.2711   -1.7823    0.9205 H   0  0  0  0  0  0  0  0  0  0  0  0
   -0.1547    0.3102   -1.2350 H   0  0  0  0  0  0  0  0  0  0  0  0
   -0.6110   -1.4077   -1.2166 H   0  0  0  0  0  0  0  0  0  0  0  0
   -0.6600   -0.5595    2.5410 H   0  0  0  0  0  0  0  0  0  0  0  0
    0.3508    0.8492    2.1854 H   0  0  0  0  0  0  0  0  0  0  0  0
   -2.3434    0.8946    1.7802 H   0  0  0  0  0  0  0  0  0  0  0  0
   -1.2258    1.7655    0.7008 H   0  0  0  0  0  0  0  0  0  0  0  0
   -2.6892   -0.0986   -1.9449 H   0  0  0  0  0  0  0  0  0  0  0  0
   -2.4561    1.4689   -1.2452 H   0  0  0  0  0  0  0  0  0  0  0  0
   -4.2083    2.4975   -0.0001 H   0  0  0  0  0  0  0  0  0  0  0  0
   -6.8180   -1.7216   -0.1374 H   0  0  0  0  0  0  0  0  0  0  0  0
   -5.0161   -2.8823   -1.0399 H   0  0  0  0  0  0  0  0  0  0  0  0
   -3.4462   -2.3551   -0.4527 H   0  0  0  0  0  0  0  0  0  0  0  0
   -3.9859   -1.9443   -2.1099 H   0  0  0  0  0  0  0  0  0  0  0  0
    4.6350    2.2981   -0.6718 H   0  0  0  0  0  0  0  0  0  0  0  0
    5.2475   -2.5413    0.5388 H   0  0  0  0  0  0  0  0  0  0  0  0
   -6.5490    2.4591    0.7789 H   0  0  0  0  0  0  0  0  0  0  0  0
   -7.8524    0.3496    0.7104 H   0  0  0  0  0  0  0  0  0  0  0  0
    7.2088   -1.1284   -0.0640 H   0  0  0  0  0  0  0  0  0  0  0  0
  1 22  1  0  0  0  0
  2 10  1  0  0  0  0
  2 14  1  0  0  0  0
  3  6  1  0  0  0  0
  3  8  1  0  0  0  0
  3  9  1  0  0  0  0
  4 10  2  0  0  0  0
  4 13  1  0  0  0  0
  5  6  1  0  0  0  0
  5  7  1  0  0  0  0
  5 10  1  0  0  0  0
  5 24  1  0  0  0  0
  6 25  1  0  0  0  0
  6 26  1  0  0  0  0
  7  8  1  0  0  0  0
  7 27  1  0  0  0  0
  7 28  1  0  0  0  0
  8 29  1  0  0  0  0
  8 30  1  0  0  0  0
  9 11  1  0  0  0  0
  9 31  1  0  0  0  0
  9 32  1  0  0  0  0
 11 12  1  0  0  0  0
 11 15  2  0  0  0  0
 12 16  2  0  0  0  0
 12 17  1  0  0  0  0
 13 14  2  0  0  0  0
 13 18  1  0  0  0  0
 14 19  1  0  0  0  0
 15 20  1  0  0  0  0
 15 33  1  0  0  0  0
 16 21  1  0  0  0  0
 16 34  1  0  0  0  0
 17 35  1  0  0  0  0
 17 36  1  0  0  0  0
 17 37  1  0  0  0  0
 18 22  2  0  0  0  0
 18 38  1  0  0  0  0
 19 23  2  0  0  0  0
 19 39  1  0  0  0  0
 20 21  2  0  0  0  0
 20 40  1  0  0  0  0
 21 41  1  0  0  0  0
 22 23  1  0  0  0  0
 23 42  1  0  0  0  0
M  END
> <PUBCHEM_COMPOUND_CID>
45784180

> <PUBCHEM_CONFORMER_RMSD>
0.8

> <PUBCHEM_CONFORMER_DIVERSEORDER>
1
46
18
57
47
42
48
36
22
50
56
28
5
43
21
51
55
10
49
13
25
53
26
45
27
40
54
24
44
7
30
2
52
41
14
20
31
37
19
32
35
15
8
12
29
6
23
39
38
9
3
34
33
17
11
4
16

> <PUBCHEM_MMFF94_PARTIAL_CHARGES>
29
1 -0.18
10 0.3
11 -0.14
12 -0.14
13 0.23
14 0.14
15 -0.15
16 -0.15
17 0.14
18 -0.15
19 -0.15
2 -0.28
20 -0.15
21 -0.15
22 0.18
23 -0.15
3 -0.81
33 0.15
34 0.15
38 0.15
39 0.15
4 -0.57
40 0.15
41 0.15
42 0.15
5 0.18
6 0.27
8 0.27
9 0.41

> <PUBCHEM_EFFECTIVE_ROTOR_COUNT>
4

> <PUBCHEM_PHARMACOPHORE_FEATURES>
5
1 3 cation
5 2 4 10 13 14 rings
5 3 5 6 7 8 rings
6 11 12 15 16 20 21 rings
6 13 14 18 19 22 23 rings

> <PUBCHEM_HEAVY_ATOM_COUNT>
23

> <PUBCHEM_ATOM_DEF_STEREO_COUNT>
1

> <PUBCHEM_ATOM_UDEF_STEREO_COUNT>
0

> <PUBCHEM_BOND_DEF_STEREO_COUNT>
0

> <PUBCHEM_BOND_UDEF_STEREO_COUNT>
0

> <PUBCHEM_ISOTOPIC_ATOM_COUNT>
0

> <PUBCHEM_COMPONENT_COUNT>
1

> <PUBCHEM_CACTVS_TAUTO_COUNT>
1

> <PUBCHEM_CONFORMER_ID>
02BA9C7400000001

> <PUBCHEM_MMFF94_ENERGY>
49.2961

> <PUBCHEM_FEATURE_SELFOVERLAP>
25.492

> <PUBCHEM_SHAPE_FINGERPRINT>
10 15 13623534584610621908
10299344 5 18413952793612091751
10595046 47 18408602539533734233
106641 1 13623537878470937516
11315181 36 16559030502566068827
11524674 6 16128371597665451959
11646440 116 16298110873523636924
12107183 9 17545033806450377739
12166972 35 18334579048876381980
12236239 1 18341894078218226518
12643181 29 14405182876695585284
12730499 353 17603307020938012298
12788726 201 17274543114173615627
12916748 109 16370724803629112908
13073987 5 15864341398841056381
13167372 99 18336546010706192128
13533116 47 18341328903967969122
13690498 29 18058440071384304519
14251752 14 18060419092791055025
14251764 18 18334857229406870212
14849402 71 18188216514757423844
14856354 85 18060422443646241959
14933364 13 18411982459636549925
15183329 4 18343017778943687997
15537594 2 16415474939353126407
1577012 14 18410853261379213076
17844677 252 18202283623857703761
18335252 98 18260837028767813203
19489759 90 8286201660980971159
200 152 18413669106162669450
20157964 124 18187085053600187450
2026 5 14691473637712583996
20281389 69 17240480304127345828
21033648 29 17823136895228102376
21150785 3 18343868840220732580
220451 1 18272650147099464527
22224240 67 16153709838215279968
23035841 295 18273494568193389707
23081809 10 18411973659158961118
23198884 109 18334296461687043537
23402539 116 18342452634414783925
23516275 137 18199489691592372515
23522609 53 18268452207505113841
23536379 177 18411135814287226355
23559900 14 17846488266373218961
23569943 247 17097762470539388234
23622692 88 13551196593168693658
2838139 119 17603583058348982652
29717793 49 18131637751637240670
3004659 81 17561364002402220984
314173 85 14908179754961605355
335352 9 18059851767400381525
34797466 226 16128657479605752696
3545911 37 17821449053867072522
397830 11 15141827143926824100
4073 2 18041002872975934882
4325135 7 18407759248780923685
4340502 62 15574713586855740354
445580 37 17775012258347345585
5265222 85 18058729237887741359
5283156 175 17560804299781561942
542803 24 18411696578012675143
5758199 1 18040719173057873792
59682541 35 16443355295007709121
59755656 215 15267069120875876892
59755656 520 17385442128814943595
999808 66 18260557762243231899

> <PUBCHEM_SHAPE_MULTIPOLES>
459.37
20.47
1.63
1.03
4.79
0.1
-0.16
-4.26
3.5
-0.05
0.2
-0.27
0
-1.57

> <PUBCHEM_SHAPE_SELFOVERLAP>
997.362

> <PUBCHEM_SHAPE_VOLUME>
254.2

> <PUBCHEM_COORDINATE_TYPE>
2
5
10

$$$$
