11883375
  -OEChem-12032416123D

 54 57  0     1  0  0  0  0  0999 V2000
   -0.5343    0.8172    0.9565 O   0  0  0  0  0  0  0  0  0  0  0  0
   -1.1522    3.5045   -0.3855 O   0  0  0  0  0  0  0  0  0  0  0  0
    1.9191    1.7027    0.0061 O   0  0  0  0  0  0  0  0  0  0  0  0
   -5.3002    1.0865    1.1893 O   0  0  0  0  0  0  0  0  0  0  0  0
    2.5557    0.5818   -1.8828 O   0  0  0  0  0  0  0  0  0  0  0  0
    8.8191   -2.5499    1.2148 O   0  0  0  0  0  0  0  0  0  0  0  0
   -3.4584    0.6639   -0.1430 N   0  0  0  0  0  0  0  0  0  0  0  0
   -5.3013   -0.6936   -0.3411 N   0  0  0  0  0  0  0  0  0  0  0  0
    3.8689    0.5700    0.0551 N   0  0  0  0  0  0  0  0  0  0  0  0
   -1.6115    2.1663   -0.6692 C   0  0  1  0  0  0  0  0  0  0  0  0
   -0.4415    1.2372   -0.4150 C   0  0  1  0  0  0  0  0  0  0  0  0
   -2.6395    1.7427    0.3538 C   0  0  2  0  0  0  0  0  0  0  0  0
    0.7474    2.1391   -0.6448 C   0  0  1  0  0  0  0  0  0  0  0  0
   -1.7709    1.2881    1.5141 C   0  0  0  0  0  0  0  0  0  0  0  0
    0.2541    3.4617   -0.1027 C   0  0  0  0  0  0  0  0  0  0  0  0
   -4.7552    0.4099    0.3204 C   0  0  0  0  0  0  0  0  0  0  0  0
    2.7785    0.9071   -0.7231 C   0  0  0  0  0  0  0  0  0  0  0  0
   -6.5815   -1.2673   -0.1613 C   0  0  0  0  0  0  0  0  0  0  0  0
    4.9799   -0.2275   -0.3022 C   0  0  0  0  0  0  0  0  0  0  0  0
   -6.9601   -2.3779   -0.9156 C   0  0  0  0  0  0  0  0  0  0  0  0
   -7.4657   -0.7225    0.7698 C   0  0  0  0  0  0  0  0  0  0  0  0
    5.9968   -0.4626    0.6232 C   0  0  0  0  0  0  0  0  0  0  0  0
    5.0594   -0.7791   -1.5809 C   0  0  0  0  0  0  0  0  0  0  0  0
    7.0931   -1.2492    0.2698 C   0  0  0  0  0  0  0  0  0  0  0  0
   -8.2228   -2.9435   -0.7388 C   0  0  0  0  0  0  0  0  0  0  0  0
   -8.7283   -1.2882    0.9467 C   0  0  0  0  0  0  0  0  0  0  0  0
    6.1556   -1.5658   -1.9343 C   0  0  0  0  0  0  0  0  0  0  0  0
    7.1726   -1.8008   -1.0089 C   0  0  0  0  0  0  0  0  0  0  0  0
   -9.1070   -2.3987    0.1924 C   0  0  0  0  0  0  0  0  0  0  0  0
    8.1533   -1.4953    1.2342 C   0  0  0  0  0  0  0  0  0  0  0  0
    8.4767   -0.4568    2.3029 C   0  0  0  0  0  0  0  0  0  0  0  0
   -1.9638    2.1485   -1.7054 H   0  0  0  0  0  0  0  0  0  0  0  0
   -0.4388    0.3385   -1.0385 H   0  0  0  0  0  0  0  0  0  0  0  0
   -3.2927    2.5641    0.6673 H   0  0  0  0  0  0  0  0  0  0  0  0
    0.9038    2.2683   -1.7248 H   0  0  0  0  0  0  0  0  0  0  0  0
   -2.2190    0.4949    2.1203 H   0  0  0  0  0  0  0  0  0  0  0  0
   -1.5277    2.1289    2.1730 H   0  0  0  0  0  0  0  0  0  0  0  0
    0.7496    4.3158   -0.5742 H   0  0  0  0  0  0  0  0  0  0  0  0
    0.4003    3.5483    0.9799 H   0  0  0  0  0  0  0  0  0  0  0  0
   -3.0540    0.0175   -0.8139 H   0  0  0  0  0  0  0  0  0  0  0  0
   -4.7140   -1.1444   -1.0382 H   0  0  0  0  0  0  0  0  0  0  0  0
    3.8762    0.9396    1.0026 H   0  0  0  0  0  0  0  0  0  0  0  0
   -6.2808   -2.8123   -1.6447 H   0  0  0  0  0  0  0  0  0  0  0  0
   -7.2458    0.1350    1.3898 H   0  0  0  0  0  0  0  0  0  0  0  0
    5.9152   -0.0370    1.6205 H   0  0  0  0  0  0  0  0  0  0  0  0
    4.3117   -0.6409   -2.3495 H   0  0  0  0  0  0  0  0  0  0  0  0
   -8.5177   -3.8082   -1.3261 H   0  0  0  0  0  0  0  0  0  0  0  0
   -9.4178   -0.8648    1.6713 H   0  0  0  0  0  0  0  0  0  0  0  0
    6.2189   -1.9951   -2.9300 H   0  0  0  0  0  0  0  0  0  0  0  0
    8.0209   -2.4132   -1.3036 H   0  0  0  0  0  0  0  0  0  0  0  0
  -10.0901   -2.8391    0.3301 H   0  0  0  0  0  0  0  0  0  0  0  0
    9.5367   -0.5317    2.5639 H   0  0  0  0  0  0  0  0  0  0  0  0
    8.3020    0.5550    1.9269 H   0  0  0  0  0  0  0  0  0  0  0  0
    7.8676   -0.6434    3.1906 H   0  0  0  0  0  0  0  0  0  0  0  0
  1 11  1  0  0  0  0
  1 14  1  0  0  0  0
  2 10  1  0  0  0  0
  2 15  1  0  0  0  0
  3 13  1  0  0  0  0
  3 17  1  0  0  0  0
  4 16  2  0  0  0  0
  5 17  2  0  0  0  0
  6 30  2  0  0  0  0
  7 12  1  0  0  0  0
  7 16  1  0  0  0  0
  7 40  1  0  0  0  0
  8 16  1  0  0  0  0
  8 18  1  0  0  0  0
  8 41  1  0  0  0  0
  9 17  1  0  0  0  0
  9 19  1  0  0  0  0
  9 42  1  0  0  0  0
 10 11  1  0  0  0  0
 10 12  1  0  0  0  0
 10 32  1  0  0  0  0
 11 13  1  0  0  0  0
 11 33  1  0  0  0  0
 12 14  1  0  0  0  0
 12 34  1  0  0  0  0
 13 15  1  0  0  0  0
 13 35  1  0  0  0  0
 14 36  1  0  0  0  0
 14 37  1  0  0  0  0
 15 38  1  0  0  0  0
 15 39  1  0  0  0  0
 18 20  2  0  0  0  0
 18 21  1  0  0  0  0
 19 22  1  0  0  0  0
 19 23  2  0  0  0  0
 20 25  1  0  0  0  0
 20 43  1  0  0  0  0
 21 26  2  0  0  0  0
 21 44  1  0  0  0  0
 22 24  2  0  0  0  0
 22 45  1  0  0  0  0
 23 27  1  0  0  0  0
 23 46  1  0  0  0  0
 24 28  1  0  0  0  0
 24 30  1  0  0  0  0
 25 29  2  0  0  0  0
 25 47  1  0  0  0  0
 26 29  1  0  0  0  0
 26 48  1  0  0  0  0
 27 28  2  0  0  0  0
 27 49  1  0  0  0  0
 28 50  1  0  0  0  0
 29 51  1  0  0  0  0
 30 31  1  0  0  0  0
 31 52  1  0  0  0  0
 31 53  1  0  0  0  0
 31 54  1  0  0  0  0
M  END
> <PUBCHEM_COMPOUND_CID>
11883375

> <PUBCHEM_CONFORMER_RMSD>
1

> <PUBCHEM_CONFORMER_DIVERSEORDER>
2
149
47
127
165
43
88
60
174
80
146
162
147
86
175
70
121
159
169
148
151
129
120
138
171
57
152
82
130
71
160
126
66
132
58
84
161
105
16
38
137
95
108
177
83
125
101
40
109
32
85
142
115
119
69
34
167
116
94
173
50
144
158
150
112
145
155
114
128
42
59
90
118
68
72
107
78
11
20
176
170
153
172
21
41
96
106
51
103
122
76
62
81
36
164
27
139
168
9
52
44
141
97
104
12
110
89
26
75
53
117
124
166
45
33
61
135
31
133
99
18
3
29
131
79
91
136
163
64
74
14
28
92
39
7
56
55
156
111
10
100
157
15
48
143
19
24
134
67
140
178
54
98
49
154
123
87
102
63
35
46
37
6
22
8
77
65
23
93
4
73
17
5
30
25
13
113
1

> <PUBCHEM_MMFF94_PARTIAL_CHARGES>
43
1 -0.56
10 0.28
11 0.28
12 0.3
13 0.28
14 0.28
15 0.28
16 0.69
17 0.78
18 0.12
19 0.12
2 -0.56
20 -0.15
21 -0.15
22 -0.15
23 -0.15
24 0.09
25 -0.15
26 -0.15
27 -0.15
28 -0.15
29 -0.15
3 -0.43
30 0.42
31 0.06
4 -0.57
40 0.37
41 0.37
42 0.37
43 0.15
44 0.15
45 0.15
46 0.15
47 0.15
48 0.15
49 0.15
5 -0.57
50 0.15
51 0.15
6 -0.57
7 -0.73
8 -0.55
9 -0.55

> <PUBCHEM_EFFECTIVE_ROTOR_COUNT>
10.2

> <PUBCHEM_PHARMACOPHORE_FEATURES>
12
1 1 acceptor
1 2 acceptor
1 4 acceptor
1 5 acceptor
1 6 acceptor
1 7 donor
1 8 donor
1 9 donor
5 1 10 11 12 14 rings
5 2 10 11 13 15 rings
6 18 20 21 25 26 29 rings
6 19 22 23 24 27 28 rings

> <PUBCHEM_HEAVY_ATOM_COUNT>
31

> <PUBCHEM_ATOM_DEF_STEREO_COUNT>
4

> <PUBCHEM_ATOM_UDEF_STEREO_COUNT>
0

> <PUBCHEM_BOND_DEF_STEREO_COUNT>
0

> <PUBCHEM_BOND_UDEF_STEREO_COUNT>
0

> <PUBCHEM_ISOTOPIC_ATOM_COUNT>
0

> <PUBCHEM_COMPONENT_COUNT>
1

> <PUBCHEM_CACTVS_TAUTO_COUNT>
12

> <PUBCHEM_CONFORMER_ID>
00B5536F00000002

> <PUBCHEM_MMFF94_ENERGY>
94.2063

> <PUBCHEM_FEATURE_SELFOVERLAP>
61.667

> <PUBCHEM_SHAPE_FINGERPRINT>
10 15 13830133884004436603
10100884 174 18334855013821781850
10190206 1 13262388939221583975
10411042 1 18408040714820572885
10625338 86 13830138265161586667
10917259 69 18265615387177783933
11103572 95 17774172176024730071
11297750 10 18334848437641600893
11386260 185 14923952266896050790
12120059 9 18129936776657058775
12539765 74 10809332343840397497
12838863 1 18113331986678381010
13248334 5 17977950408209194477
13974486 7 18336536213638669411
14068700 675 18187086131131324132
14359421 15 17821441357597656011
14565420 104 10879726359753252781
14664723 55 8574430962927278270
14965480 1 16951704665452732019
15183329 4 14851604362669238844
15188451 53 18187365398958437740
15198563 99 15719664390873469839
15350500 16 18114177540857434994
15392192 104 17988926695955612996
15510800 12 18339661009031907943
15519825 34 17989490718538081034
16990366 60 18337955696255471651
16992610 120 9655575249382617744
16993427 108 18335133172512994688
16994733 274 9511462195720982645
19303781 99 18341325717234241239
19841028 212 18337675316405666313
2026 5 18261390018550079043
20691028 202 9511162041831664118
21095123 293 11600007660627475818
21130935 74 18128820738480709514
212700 22 18272650169323940007
21307412 95 17313108592366470019
21424621 283 8718830881701977893
21585482 111 9511199434112829371
21792965 20 13984927551835303268
21987483 16 18409443726760184474
22002106 203 17988071318764736847
22149856 69 17560811991946630760
23528940 14 18261947442030642658
23569943 247 18336831979131402555
23576562 1 12902128556002777763
25242607 90 18342452668780037451
3383291 50 18412828005886228531
3986486 107 13334732419025424494
3991529 128 13551460438829682167
406291 66 18408885148508827279
4516262 110 9655309094955340881
5470011 282 16805615805762525710
5718773 13 18410012143405171837
5719381 82 18333731321327123291
5758199 1 9655581794902304585
5874358 3 18114177527998906906
5937810 71 12829483728329576359
59682541 35 17275102833994982050
59682541 52 14923940150697953056
6712543 237 15985111821151410431
9689198 14 7925914785786458565
9962374 69 18340766047844179004
9980921 7 11455891344198392251

> <PUBCHEM_SHAPE_MULTIPOLES>
587.81
32.39
3.42
1.54
7.74
1.26
-0.15
-38.95
-8.63
2.81
0.55
-3.08
-0.44
-1.3

> <PUBCHEM_SHAPE_SELFOVERLAP>
1268.042

> <PUBCHEM_SHAPE_VOLUME>
321.9

> <PUBCHEM_COORDINATE_TYPE>
2
5
10

$$$$
