40779858
  -OEChem-12032416293D

 57 60  0     1  0  0  0  0  0999 V2000
   -0.0101   -4.3893   -0.0201 Cl  0  0  0  0  0  0  0  0  0  0  0  0
   -4.5807   -0.0880   -0.1796 S   0  0  0  0  0  0  0  0  0  0  0  0
   -5.0882   -0.0249   -1.5370 O   0  0  0  0  0  0  0  0  0  0  0  0
   -5.4777   -0.3821    0.9215 O   0  0  0  0  0  0  0  0  0  0  0  0
   -0.5374    3.1625   -0.7621 N   0  0  2  0  0  0  0  0  0  0  0  0
    2.2892   -0.6012    0.5530 N   0  0  3  0  0  0  0  0  0  0  0  0
   -3.6980    1.3527    0.1459 N   0  0  0  0  0  0  0  0  0  0  0  0
    0.5511    1.9153    1.2446 C   0  0  2  0  0  0  0  0  0  0  0  0
    1.1695    1.4519   -0.0940 C   0  0  2  0  0  0  0  0  0  0  0  0
   -1.5928    2.5581    0.0952 C   0  0  2  0  0  0  0  0  0  0  0  0
   -0.9713    1.6867    1.2093 C   0  0  0  0  0  0  0  0  0  0  0  0
    0.3900    2.1142   -1.2523 C   0  0  0  0  0  0  0  0  0  0  0  0
    0.7820    3.4355    1.3417 C   0  0  0  0  0  0  0  0  0  0  0  0
    0.2386    4.1131    0.0711 C   0  0  0  0  0  0  0  0  0  0  0  0
    1.2156   -0.0671   -0.2425 C   0  0  0  0  0  0  0  0  0  0  0  0
   -2.6329    1.7841   -0.7181 C   0  0  0  0  0  0  0  0  0  0  0  0
    1.9760   -1.1756    1.8649 C   0  0  0  0  0  0  0  0  0  0  0  0
    3.6198   -0.5768    0.1044 C   0  0  0  0  0  0  0  0  0  0  0  0
   -3.2941   -1.2994   -0.1348 C   0  0  0  0  0  0  0  0  0  0  0  0
    3.9257   -0.0320   -1.1427 C   0  0  0  0  0  0  0  0  0  0  0  0
    4.6354   -1.0976    0.9061 C   0  0  0  0  0  0  0  0  0  0  0  0
    5.2473   -0.0080   -1.5882 C   0  0  0  0  0  0  0  0  0  0  0  0
    5.9571   -1.0736    0.4607 C   0  0  0  0  0  0  0  0  0  0  0  0
   -2.9725   -1.9310    1.0667 C   0  0  0  0  0  0  0  0  0  0  0  0
   -2.6002   -1.6234   -1.3006 C   0  0  0  0  0  0  0  0  0  0  0  0
    6.2630   -0.5288   -0.7865 C   0  0  0  0  0  0  0  0  0  0  0  0
   -1.9568   -2.8864    1.1023 C   0  0  0  0  0  0  0  0  0  0  0  0
   -1.5846   -2.5788   -1.2651 C   0  0  0  0  0  0  0  0  0  0  0  0
   -1.2629   -3.2102   -0.0636 C   0  0  0  0  0  0  0  0  0  0  0  0
    1.0013    1.4168    2.1071 H   0  0  0  0  0  0  0  0  0  0  0  0
    2.1913    1.8537   -0.1280 H   0  0  0  0  0  0  0  0  0  0  0  0
   -2.1344    3.3853    0.5783 H   0  0  0  0  0  0  0  0  0  0  0  0
   -1.1948    0.6253    1.0780 H   0  0  0  0  0  0  0  0  0  0  0  0
   -1.4033    1.9764    2.1758 H   0  0  0  0  0  0  0  0  0  0  0  0
    1.1035    2.5689   -1.9524 H   0  0  0  0  0  0  0  0  0  0  0  0
   -0.1524    1.3766   -1.8535 H   0  0  0  0  0  0  0  0  0  0  0  0
    1.8506    3.6538    1.4524 H   0  0  0  0  0  0  0  0  0  0  0  0
    0.2752    3.8355    2.2283 H   0  0  0  0  0  0  0  0  0  0  0  0
   -0.3896    4.9699    0.3447 H   0  0  0  0  0  0  0  0  0  0  0  0
    1.0651    4.5323   -0.5168 H   0  0  0  0  0  0  0  0  0  0  0  0
    1.3133   -0.3707   -1.2918 H   0  0  0  0  0  0  0  0  0  0  0  0
    0.2638   -0.5130    0.0589 H   0  0  0  0  0  0  0  0  0  0  0  0
   -2.1725    0.9516   -1.2461 H   0  0  0  0  0  0  0  0  0  0  0  0
   -3.0614    2.4459   -1.4803 H   0  0  0  0  0  0  0  0  0  0  0  0
   -3.8602    1.8555    1.0263 H   0  0  0  0  0  0  0  0  0  0  0  0
    0.9025   -1.1213    2.0781 H   0  0  0  0  0  0  0  0  0  0  0  0
    2.4848   -0.6291    2.6666 H   0  0  0  0  0  0  0  0  0  0  0  0
    2.2493   -2.2358    1.9037 H   0  0  0  0  0  0  0  0  0  0  0  0
    3.1834    0.3910   -1.8108 H   0  0  0  0  0  0  0  0  0  0  0  0
    4.4527   -1.5329    1.8834 H   0  0  0  0  0  0  0  0  0  0  0  0
    5.4866    0.4167   -2.5588 H   0  0  0  0  0  0  0  0  0  0  0  0
    6.7486   -1.4788    1.0843 H   0  0  0  0  0  0  0  0  0  0  0  0
   -3.4942   -1.6876    1.9878 H   0  0  0  0  0  0  0  0  0  0  0  0
   -2.8348   -1.1473   -2.2484 H   0  0  0  0  0  0  0  0  0  0  0  0
    7.2921   -0.5099   -1.1333 H   0  0  0  0  0  0  0  0  0  0  0  0
   -1.7146   -3.3683    2.0460 H   0  0  0  0  0  0  0  0  0  0  0  0
   -1.0516   -2.8206   -2.1810 H   0  0  0  0  0  0  0  0  0  0  0  0
  1 29  1  0  0  0  0
  2  3  2  0  0  0  0
  2  4  2  0  0  0  0
  2  7  1  0  0  0  0
  2 19  1  0  0  0  0
  5 10  1  0  0  0  0
  5 12  1  0  0  0  0
  5 14  1  0  0  0  0
  6 15  1  0  0  0  0
  6 17  1  0  0  0  0
  6 18  1  0  0  0  0
  7 16  1  0  0  0  0
  7 45  1  0  0  0  0
  8  9  1  0  0  0  0
  8 11  1  0  0  0  0
  8 13  1  0  0  0  0
  8 30  1  0  0  0  0
  9 12  1  0  0  0  0
  9 15  1  0  0  0  0
  9 31  1  0  0  0  0
 10 11  1  0  0  0  0
 10 16  1  0  0  0  0
 10 32  1  0  0  0  0
 11 33  1  0  0  0  0
 11 34  1  0  0  0  0
 12 35  1  0  0  0  0
 12 36  1  0  0  0  0
 13 14  1  0  0  0  0
 13 37  1  0  0  0  0
 13 38  1  0  0  0  0
 14 39  1  0  0  0  0
 14 40  1  0  0  0  0
 15 41  1  0  0  0  0
 15 42  1  0  0  0  0
 16 43  1  0  0  0  0
 16 44  1  0  0  0  0
 17 46  1  0  0  0  0
 17 47  1  0  0  0  0
 17 48  1  0  0  0  0
 18 20  2  0  0  0  0
 18 21  1  0  0  0  0
 19 24  2  0  0  0  0
 19 25  1  0  0  0  0
 20 22  1  0  0  0  0
 20 49  1  0  0  0  0
 21 23  2  0  0  0  0
 21 50  1  0  0  0  0
 22 26  2  0  0  0  0
 22 51  1  0  0  0  0
 23 26  1  0  0  0  0
 23 52  1  0  0  0  0
 24 27  1  0  0  0  0
 24 53  1  0  0  0  0
 25 28  2  0  0  0  0
 25 54  1  0  0  0  0
 26 55  1  0  0  0  0
 27 29  2  0  0  0  0
 27 56  1  0  0  0  0
 28 29  1  0  0  0  0
 28 57  1  0  0  0  0
M  END
> <PUBCHEM_COMPOUND_CID>
40779858

> <PUBCHEM_CONFORMER_RMSD>
1

> <PUBCHEM_CONFORMER_DIVERSEORDER>
2
39
126
114
51
116
14
89
93
105
6
101
78
40
80
112
32
55
25
59
50
115
130
119
87
10
47
34
118
81
49
27
20
86
110
129
111
84
124
23
42
66
77
79
65
68
95
5
128
120
85
122
15
71
108
63
113
31
104
131
125
72
69
99
18
67
82
11
121
8
109
53
28
26
123
29
52
58
75
94
43
70
60
92
103
132
17
48
61
41
88
19
100
91
74
21
83
102
3
46
127
57
36
97
107
117
73
45
90
9
24
22
7
13
44
96
98
38
37
12
30
56
35
64
62
16
4
106
33
76
54
1

> <PUBCHEM_MMFF94_PARTIAL_CHARGES>
35
1 -0.18
10 0.27
12 0.27
14 0.27
15 0.37
16 0.36
17 0.37
18 0.1
19 -0.01
2 1.45
20 -0.15
21 -0.15
22 -0.15
23 -0.15
24 -0.15
25 -0.15
26 -0.15
27 -0.15
28 -0.15
29 0.18
3 -0.65
4 -0.65
45 0.42
49 0.15
5 -0.81
50 0.15
51 0.15
52 0.15
53 0.15
54 0.15
55 0.15
56 0.15
57 0.15
6 -0.84
7 -0.91

> <PUBCHEM_EFFECTIVE_ROTOR_COUNT>
8.2

> <PUBCHEM_PHARMACOPHORE_FEATURES>
8
1 3 acceptor
1 4 acceptor
1 5 cation
1 6 cation
1 7 donor
6 18 20 21 22 23 26 rings
6 19 24 25 27 28 29 rings
8 5 8 9 10 11 12 13 14 rings

> <PUBCHEM_HEAVY_ATOM_COUNT>
29

> <PUBCHEM_ATOM_DEF_STEREO_COUNT>
3

> <PUBCHEM_ATOM_UDEF_STEREO_COUNT>
0

> <PUBCHEM_BOND_DEF_STEREO_COUNT>
0

> <PUBCHEM_BOND_UDEF_STEREO_COUNT>
0

> <PUBCHEM_ISOTOPIC_ATOM_COUNT>
0

> <PUBCHEM_COMPONENT_COUNT>
1

> <PUBCHEM_CACTVS_TAUTO_COUNT>
1

> <PUBCHEM_CONFORMER_ID>
026E405200000002

> <PUBCHEM_MMFF94_ENERGY>
79.8122

> <PUBCHEM_FEATURE_SELFOVERLAP>
40.614

> <PUBCHEM_SHAPE_FINGERPRINT>
10675989 125 16893696248188488493
1100329 8 18411139185920982135
11014199 57 17907575088225083846
11513181 2 17699559553007308014
12156800 1 17397888566302882867
12553582 1 18410000044487586723
12788726 201 18337383825702410594
13140716 1 18268432502943518443
13402501 40 18343584018815794903
14068700 675 17988920093889356713
14114206 34 18188469333806267717
14251757 5 18336834173115826782
14279260 333 17895192161378282970
14394314 77 18339081484488435753
14674994 50 17489298732756738150
15297060 5 18199190590147688354
15328829 1 17676474014246146962
16112460 7 18200889460061529321
161222 619 17343185749971418224
17492 54 18188481390069571897
19319366 153 17749101193097246930
19958102 18 18265053544650334942
20511986 3 17749098964430777368
20600515 1 18201174212008465909
20775438 99 16976139253336356879
21796203 349 18048353099512097217
23559900 14 18339917246411444281
2818148 4 17758138255391133731
3027735 51 18268993081310270131
3178227 256 18338531793858024067
3383291 50 18341048601296258283
338550 245 18191867817412403094
35225 105 17983271773597462214
4280585 95 18410565219693211264
463206 1 18262809574182169636
5265222 85 18408045091455298013
563151 74 16054885819410987872
6138700 20 18411416198964976527
6371380 46 18411417285713489457
70251023 43 17761772166790868915

> <PUBCHEM_SHAPE_MULTIPOLES>
575.84
10.76
4.88
1.49
9.61
0.52
0.04
-4.48
-2.14
-2.31
0.55
0.28
-0.04
-0.07

> <PUBCHEM_SHAPE_SELFOVERLAP>
1204.742

> <PUBCHEM_SHAPE_VOLUME>
328.7

> <PUBCHEM_COORDINATE_TYPE>
2
5
10

$$$$
