40467553
  -OEChem-12032416363D

 65 69  0     1  0  0  0  0  0999 V2000
    2.7043    1.1170    1.2427 S   0  0  0  0  0  0  0  0  0  0  0  0
    0.0366    2.6556    1.7159 O   0  0  0  0  0  0  0  0  0  0  0  0
    3.3431    1.9244    2.2649 O   0  0  0  0  0  0  0  0  0  0  0  0
    1.6535    0.1828    1.6003 O   0  0  0  0  0  0  0  0  0  0  0  0
   -3.7322   -0.1887    0.0157 N   0  0  2  0  0  0  0  0  0  0  0  0
   -1.5631    2.1484    0.0811 N   0  0  0  0  0  0  0  0  0  0  0  0
    2.1778    2.1111   -0.0218 N   0  0  0  0  0  0  0  0  0  0  0  0
   -4.0866    2.2436    0.5089 C   0  0  1  0  0  0  0  0  0  0  0  0
   -3.2541    1.5695   -1.6940 C   0  0  2  0  0  0  0  0  0  0  0  0
   -4.1778    2.5524   -0.9796 C   0  0  0  0  0  0  0  0  0  0  0  0
   -4.5239    0.7874    0.7746 C   0  0  0  0  0  0  0  0  0  0  0  0
   -3.7282    0.1235   -1.4213 C   0  0  0  0  0  0  0  0  0  0  0  0
   -2.6560    2.5257    0.9870 C   0  0  0  0  0  0  0  0  0  0  0  0
   -4.2084   -1.5489    0.2545 C   0  0  0  0  0  0  0  0  0  0  0  0
   -3.1139   -2.5752   -0.0322 C   0  0  0  0  0  0  0  0  0  0  0  0
   -1.8175    1.7520   -1.2389 C   0  0  0  0  0  0  0  0  0  0  0  0
   -1.9059   -2.3504    0.8873 C   0  0  0  0  0  0  0  0  0  0  0  0
   -3.6567   -4.0028    0.1180 C   0  0  0  0  0  0  0  0  0  0  0  0
   -0.8190   -3.3977    0.6562 C   0  0  0  0  0  0  0  0  0  0  0  0
   -2.5669   -5.0474   -0.1116 C   0  0  0  0  0  0  0  0  0  0  0  0
   -1.3642   -4.8155    0.7978 C   0  0  0  0  0  0  0  0  0  0  0  0
   -0.8007    1.5161   -2.0880 C   0  0  0  0  0  0  0  0  0  0  0  0
   -0.2499    2.2980    0.5741 C   0  0  0  0  0  0  0  0  0  0  0  0
    0.8286    2.0020   -0.4024 C   0  0  0  0  0  0  0  0  0  0  0  0
    0.5662    1.6433   -1.6597 C   0  0  0  0  0  0  0  0  0  0  0  0
    3.9748    0.1946    0.4283 C   0  0  0  0  0  0  0  0  0  0  0  0
    5.2871    0.6675    0.4270 C   0  0  0  0  0  0  0  0  0  0  0  0
    3.6649   -1.0047   -0.2130 C   0  0  0  0  0  0  0  0  0  0  0  0
    6.2895   -0.0589   -0.2157 C   0  0  0  0  0  0  0  0  0  0  0  0
    4.6673   -1.7311   -0.8557 C   0  0  0  0  0  0  0  0  0  0  0  0
    5.9796   -1.2583   -0.8570 C   0  0  0  0  0  0  0  0  0  0  0  0
    7.0517   -2.0353   -1.5436 C   0  0  0  0  0  0  0  0  0  0  0  0
   -4.7704    2.8998    1.0620 H   0  0  0  0  0  0  0  0  0  0  0  0
   -3.3260    1.7583   -2.7732 H   0  0  0  0  0  0  0  0  0  0  0  0
   -3.8823    3.5894   -1.1822 H   0  0  0  0  0  0  0  0  0  0  0  0
   -5.2095    2.4365   -1.3333 H   0  0  0  0  0  0  0  0  0  0  0  0
   -4.4251    0.5860    1.8488 H   0  0  0  0  0  0  0  0  0  0  0  0
   -5.5892    0.6867    0.5258 H   0  0  0  0  0  0  0  0  0  0  0  0
   -4.7340   -0.0036   -1.8448 H   0  0  0  0  0  0  0  0  0  0  0  0
   -3.0669   -0.5600   -1.9654 H   0  0  0  0  0  0  0  0  0  0  0  0
   -2.5474    3.6075    1.1452 H   0  0  0  0  0  0  0  0  0  0  0  0
   -2.4757    2.0597    1.9639 H   0  0  0  0  0  0  0  0  0  0  0  0
   -4.5036   -1.6632    1.3069 H   0  0  0  0  0  0  0  0  0  0  0  0
   -5.1093   -1.7623   -0.3359 H   0  0  0  0  0  0  0  0  0  0  0  0
   -2.7744   -2.4771   -1.0708 H   0  0  0  0  0  0  0  0  0  0  0  0
   -2.2218   -2.3868    1.9379 H   0  0  0  0  0  0  0  0  0  0  0  0
   -1.4682   -1.3591    0.7211 H   0  0  0  0  0  0  0  0  0  0  0  0
   -4.4725   -4.1703   -0.5954 H   0  0  0  0  0  0  0  0  0  0  0  0
   -4.0794   -4.1383    1.1219 H   0  0  0  0  0  0  0  0  0  0  0  0
   -0.0018   -3.2440    1.3702 H   0  0  0  0  0  0  0  0  0  0  0  0
   -0.3944   -3.2675   -0.3469 H   0  0  0  0  0  0  0  0  0  0  0  0
   -2.2442   -5.0139   -1.1595 H   0  0  0  0  0  0  0  0  0  0  0  0
   -2.9743   -6.0493    0.0648 H   0  0  0  0  0  0  0  0  0  0  0  0
   -0.5765   -5.5391    0.5597 H   0  0  0  0  0  0  0  0  0  0  0  0
   -1.6559   -4.9915    1.8405 H   0  0  0  0  0  0  0  0  0  0  0  0
   -0.9762    1.2011   -3.1113 H   0  0  0  0  0  0  0  0  0  0  0  0
    1.3435    1.4272   -2.3848 H   0  0  0  0  0  0  0  0  0  0  0  0
    2.8181    2.1566   -0.8271 H   0  0  0  0  0  0  0  0  0  0  0  0
    5.5490    1.6023    0.9145 H   0  0  0  0  0  0  0  0  0  0  0  0
    2.6483   -1.3874   -0.2298 H   0  0  0  0  0  0  0  0  0  0  0  0
    7.3082    0.3196   -0.2096 H   0  0  0  0  0  0  0  0  0  0  0  0
    4.4136   -2.6642   -1.3516 H   0  0  0  0  0  0  0  0  0  0  0  0
    7.5073   -2.7444   -0.8454 H   0  0  0  0  0  0  0  0  0  0  0  0
    6.6510   -2.5919   -2.3976 H   0  0  0  0  0  0  0  0  0  0  0  0
    7.8331   -1.3731   -1.9314 H   0  0  0  0  0  0  0  0  0  0  0  0
  1  3  2  0  0  0  0
  1  4  2  0  0  0  0
  1  7  1  0  0  0  0
  1 26  1  0  0  0  0
  2 23  2  0  0  0  0
  5 11  1  0  0  0  0
  5 12  1  0  0  0  0
  5 14  1  0  0  0  0
  6 13  1  0  0  0  0
  6 16  1  0  0  0  0
  6 23  1  0  0  0  0
  7 24  1  0  0  0  0
  7 58  1  0  0  0  0
  8 10  1  0  0  0  0
  8 11  1  0  0  0  0
  8 13  1  0  0  0  0
  8 33  1  0  0  0  0
  9 10  1  0  0  0  0
  9 12  1  0  0  0  0
  9 16  1  0  0  0  0
  9 34  1  0  0  0  0
 10 35  1  0  0  0  0
 10 36  1  0  0  0  0
 11 37  1  0  0  0  0
 11 38  1  0  0  0  0
 12 39  1  0  0  0  0
 12 40  1  0  0  0  0
 13 41  1  0  0  0  0
 13 42  1  0  0  0  0
 14 15  1  0  0  0  0
 14 43  1  0  0  0  0
 14 44  1  0  0  0  0
 15 17  1  0  0  0  0
 15 18  1  0  0  0  0
 15 45  1  0  0  0  0
 16 22  2  0  0  0  0
 17 19  1  0  0  0  0
 17 46  1  0  0  0  0
 17 47  1  0  0  0  0
 18 20  1  0  0  0  0
 18 48  1  0  0  0  0
 18 49  1  0  0  0  0
 19 21  1  0  0  0  0
 19 50  1  0  0  0  0
 19 51  1  0  0  0  0
 20 21  1  0  0  0  0
 20 52  1  0  0  0  0
 20 53  1  0  0  0  0
 21 54  1  0  0  0  0
 21 55  1  0  0  0  0
 22 25  1  0  0  0  0
 22 56  1  0  0  0  0
 23 24  1  0  0  0  0
 24 25  2  0  0  0  0
 25 57  1  0  0  0  0
 26 27  2  0  0  0  0
 26 28  1  0  0  0  0
 27 29  1  0  0  0  0
 27 59  1  0  0  0  0
 28 30  2  0  0  0  0
 28 60  1  0  0  0  0
 29 31  2  0  0  0  0
 29 61  1  0  0  0  0
 30 31  1  0  0  0  0
 30 62  1  0  0  0  0
 31 32  1  0  0  0  0
 32 63  1  0  0  0  0
 32 64  1  0  0  0  0
 32 65  1  0  0  0  0
M  END
> <PUBCHEM_COMPOUND_CID>
40467553

> <PUBCHEM_CONFORMER_RMSD>
1

> <PUBCHEM_CONFORMER_DIVERSEORDER>
1
5
15
21
27
8
26
19
24
10
17
23
25
11
14
13
18
3
2
20
6
4
16
12
22
7
9

> <PUBCHEM_MMFF94_PARTIAL_CHARGES>
31
1 1.45
11 0.27
12 0.27
13 0.3
14 0.27
16 -0.03
2 -0.57
22 -0.15
23 0.62
24 0.21
25 -0.15
26 -0.01
27 -0.15
28 -0.15
29 -0.15
3 -0.65
30 -0.15
31 -0.14
32 0.14
4 -0.65
5 -0.81
56 0.15
57 0.15
58 0.42
59 0.15
6 -0.47
60 0.15
61 0.15
62 0.15
7 -0.75
9 0.14

> <PUBCHEM_EFFECTIVE_ROTOR_COUNT>
7.2

> <PUBCHEM_PHARMACOPHORE_FEATURES>
10
1 2 acceptor
1 3 acceptor
1 4 acceptor
1 5 cation
1 7 donor
6 15 17 18 19 20 21 rings
6 26 27 28 29 30 31 rings
6 5 8 9 10 11 12 rings
6 6 16 22 23 24 25 rings
6 6 8 9 10 13 16 rings

> <PUBCHEM_HEAVY_ATOM_COUNT>
32

> <PUBCHEM_ATOM_DEF_STEREO_COUNT>
2

> <PUBCHEM_ATOM_UDEF_STEREO_COUNT>
0

> <PUBCHEM_BOND_DEF_STEREO_COUNT>
0

> <PUBCHEM_BOND_UDEF_STEREO_COUNT>
0

> <PUBCHEM_ISOTOPIC_ATOM_COUNT>
0

> <PUBCHEM_COMPONENT_COUNT>
1

> <PUBCHEM_CACTVS_TAUTO_COUNT>
3

> <PUBCHEM_CONFORMER_ID>
02697C6100000001

> <PUBCHEM_MMFF94_ENERGY>
62.3775

> <PUBCHEM_FEATURE_SELFOVERLAP>
52.32

> <PUBCHEM_SHAPE_FINGERPRINT>
10305334 12 16979564850251599936
10462674 296 17192062476733978950
10864689 126 18192710043075861636
10940486 97 18187370930090806492
11014199 57 17901953272097167747
11513181 2 18049166867213394798
12596602 18 14188991381488166598
13402501 40 18412829070937397622
1361 87 18201165373593453742
14020679 6 17915475912525575609
14028597 1 17773044060384450361
14117953 113 18260821632101348095
14251757 5 18334581252199658682
14279260 333 17771910425051752510
14444916 359 18267316339468871553
14674994 50 18410304617740562266
14840074 17 17677338195086823517
14866123 147 18410296926024197875
14950920 106 17059782242312668475
15361156 5 18131348605606716828
15537594 2 17603584088808850177
15799311 1 18338818774555923268
15927050 60 18268419132952828421
17627616 140 18190454952969938579
17909252 39 17906178700009597440
19315092 285 16409571911007148163
19958102 18 18335417907845136702
20764821 26 18120642540053302186
20775530 9 17974280221093619307
23379529 103 18266179607195728354
23516275 137 17685802136913611618
23559900 14 18342450444182741704
244849 19 17774425192632111970
3383291 50 18410571812684684707
395649 100 18411143524845890374
4017518 198 18337951182603962551
4073 2 18342453747418293504
437795 70 18335705004554593514
4435113 14 18130803239296891422
463206 1 17467910118357290747
469060 322 16732987522156011871
50150288 127 16627443038683915866
508706 21 18337383932913588671
5265222 85 18261396620057062485
56633871 153 18050014586747978907

> <PUBCHEM_SHAPE_MULTIPOLES>
629.84
13.13
5.68
1.66
22.22
8.28
0.11
4.02
2.9
-7.01
-0.77
0.45
-1
2.25

> <PUBCHEM_SHAPE_SELFOVERLAP>
1340.243

> <PUBCHEM_SHAPE_VOLUME>
350

> <PUBCHEM_COORDINATE_TYPE>
2
5
10

$$$$
