51136597
  -OEChem-12032416143D

 63 66  0     1  0  0  0  0  0999 V2000
    1.1162    3.4189    1.7875 O   0  0  0  0  0  0  0  0  0  0  0  0
    6.0991   -3.0971    0.6482 O   0  0  0  0  0  0  0  0  0  0  0  0
    6.5423   -0.9030    0.2356 O   0  0  0  0  0  0  0  0  0  0  0  0
   -3.0282   -1.6458    2.8028 O   0  0  0  0  0  0  0  0  0  0  0  0
   -5.1359   -1.4641    1.0056 O   0  0  0  0  0  0  0  0  0  0  0  0
    2.0938    2.0190    0.1880 N   0  0  0  0  0  0  0  0  0  0  0  0
    0.4249   -1.5138   -2.1674 N   0  0  0  0  0  0  0  0  0  0  0  0
    2.4051   -0.2478   -0.7819 C   0  0  2  0  0  0  0  0  0  0  0  0
    3.7978   -0.3040   -0.1038 C   0  0  1  0  0  0  0  0  0  0  0  0
    3.8536    0.5872    1.1486 C   0  0  0  0  0  0  0  0  0  0  0  0
    2.0063    1.2169   -1.0404 C   0  0  0  0  0  0  0  0  0  0  0  0
    3.4049    2.0116    0.8340 C   0  0  0  0  0  0  0  0  0  0  0  0
    1.3015   -0.9697    0.0014 C   0  0  0  0  0  0  0  0  0  0  0  0
    4.2481   -1.7267    0.2267 C   0  0  0  0  0  0  0  0  0  0  0  0
    0.1546   -1.3065   -0.9208 C   0  0  0  0  0  0  0  0  0  0  0  0
    1.0490    2.7510    0.7569 C   0  0  0  0  0  0  0  0  0  0  0  0
   -1.2184   -1.3760   -0.3588 C   0  0  0  0  0  0  0  0  0  0  0  0
    5.7431   -1.8187    0.3604 C   0  0  0  0  0  0  0  0  0  0  0  0
   -2.2783   -1.3022   -1.2717 C   0  0  0  0  0  0  0  0  0  0  0  0
   -1.9637   -1.1459   -2.7298 C   0  0  0  0  0  0  0  0  0  0  0  0
   -0.6803   -1.9003   -3.0511 C   0  0  0  0  0  0  0  0  0  0  0  0
   -0.2529    2.7346    0.0806 C   0  0  0  0  0  0  0  0  0  0  0  0
   -1.4692   -1.4942    1.0095 C   0  0  0  0  0  0  0  0  0  0  0  0
   -3.5949   -1.3213   -0.8032 C   0  0  0  0  0  0  0  0  0  0  0  0
   -2.7874   -1.5282    1.4664 C   0  0  0  0  0  0  0  0  0  0  0  0
   -3.8473   -1.4392    0.5636 C   0  0  0  0  0  0  0  0  0  0  0  0
   -0.3649    3.2015   -1.2290 C   0  0  0  0  0  0  0  0  0  0  0  0
   -1.3785    2.2504    0.7471 C   0  0  0  0  0  0  0  0  0  0  0  0
   -1.6026    3.1842   -1.8722 C   0  0  0  0  0  0  0  0  0  0  0  0
   -2.6161    2.2331    0.1040 C   0  0  0  0  0  0  0  0  0  0  0  0
   -2.7282    2.7001   -1.2057 C   0  0  0  0  0  0  0  0  0  0  0  0
   -3.1326   -0.4359    3.5505 C   0  0  0  0  0  0  0  0  0  0  0  0
   -6.1610   -1.3682    0.0185 C   0  0  0  0  0  0  0  0  0  0  0  0
    2.5491   -0.7216   -1.7611 H   0  0  0  0  0  0  0  0  0  0  0  0
    4.5050    0.1220   -0.8312 H   0  0  0  0  0  0  0  0  0  0  0  0
    3.2033    0.1705    1.9284 H   0  0  0  0  0  0  0  0  0  0  0  0
    4.8663    0.6186    1.5646 H   0  0  0  0  0  0  0  0  0  0  0  0
    1.0192    1.2336   -1.4966 H   0  0  0  0  0  0  0  0  0  0  0  0
    2.6974    1.6702   -1.7619 H   0  0  0  0  0  0  0  0  0  0  0  0
    0.9685   -0.3606    0.8459 H   0  0  0  0  0  0  0  0  0  0  0  0
    1.6534   -1.9268    0.3995 H   0  0  0  0  0  0  0  0  0  0  0  0
    4.1112    2.4927    0.1472 H   0  0  0  0  0  0  0  0  0  0  0  0
    3.3885    2.6051    1.7537 H   0  0  0  0  0  0  0  0  0  0  0  0
    3.9584   -2.4044   -0.5851 H   0  0  0  0  0  0  0  0  0  0  0  0
    3.7973   -2.0765    1.1620 H   0  0  0  0  0  0  0  0  0  0  0  0
   -1.8466   -0.0788   -2.9530 H   0  0  0  0  0  0  0  0  0  0  0  0
   -2.7780   -1.5356   -3.3508 H   0  0  0  0  0  0  0  0  0  0  0  0
   -0.3898   -1.6891   -4.0860 H   0  0  0  0  0  0  0  0  0  0  0  0
   -0.8333   -2.9842   -2.9769 H   0  0  0  0  0  0  0  0  0  0  0  0
   -0.6618   -1.5759    1.7308 H   0  0  0  0  0  0  0  0  0  0  0  0
   -4.3756   -1.2399   -1.5518 H   0  0  0  0  0  0  0  0  0  0  0  0
    7.0707   -3.1935    0.7429 H   0  0  0  0  0  0  0  0  0  0  0  0
    0.4969    3.6020   -1.7571 H   0  0  0  0  0  0  0  0  0  0  0  0
   -1.3035    1.8823    1.7668 H   0  0  0  0  0  0  0  0  0  0  0  0
   -1.6907    3.5511   -2.8906 H   0  0  0  0  0  0  0  0  0  0  0  0
   -3.4929    1.8583    0.6236 H   0  0  0  0  0  0  0  0  0  0  0  0
   -3.6919    2.6862   -1.7062 H   0  0  0  0  0  0  0  0  0  0  0  0
   -2.1768    0.0972    3.5469 H   0  0  0  0  0  0  0  0  0  0  0  0
   -3.9219    0.2049    3.1446 H   0  0  0  0  0  0  0  0  0  0  0  0
   -3.3861   -0.6918    4.5828 H   0  0  0  0  0  0  0  0  0  0  0  0
   -6.1265   -0.4076   -0.5069 H   0  0  0  0  0  0  0  0  0  0  0  0
   -6.1423   -2.2214   -0.6681 H   0  0  0  0  0  0  0  0  0  0  0  0
   -7.1199   -1.4066    0.5459 H   0  0  0  0  0  0  0  0  0  0  0  0
  1 16  2  0  0  0  0
  2 18  1  0  0  0  0
  2 52  1  0  0  0  0
  3 18  2  0  0  0  0
  4 25  1  0  0  0  0
  4 32  1  0  0  0  0
  5 26  1  0  0  0  0
  5 33  1  0  0  0  0
  6 11  1  0  0  0  0
  6 12  1  0  0  0  0
  6 16  1  0  0  0  0
  7 15  2  0  0  0  0
  7 21  1  0  0  0  0
  8  9  1  0  0  0  0
  8 11  1  0  0  0  0
  8 13  1  0  0  0  0
  8 34  1  0  0  0  0
  9 10  1  0  0  0  0
  9 14  1  0  0  0  0
  9 35  1  0  0  0  0
 10 12  1  0  0  0  0
 10 36  1  0  0  0  0
 10 37  1  0  0  0  0
 11 38  1  0  0  0  0
 11 39  1  0  0  0  0
 12 42  1  0  0  0  0
 12 43  1  0  0  0  0
 13 15  1  0  0  0  0
 13 40  1  0  0  0  0
 13 41  1  0  0  0  0
 14 18  1  0  0  0  0
 14 44  1  0  0  0  0
 14 45  1  0  0  0  0
 15 17  1  0  0  0  0
 16 22  1  0  0  0  0
 17 19  1  0  0  0  0
 17 23  2  0  0  0  0
 19 20  1  0  0  0  0
 19 24  2  0  0  0  0
 20 21  1  0  0  0  0
 20 46  1  0  0  0  0
 20 47  1  0  0  0  0
 21 48  1  0  0  0  0
 21 49  1  0  0  0  0
 22 27  2  0  0  0  0
 22 28  1  0  0  0  0
 23 25  1  0  0  0  0
 23 50  1  0  0  0  0
 24 26  1  0  0  0  0
 24 51  1  0  0  0  0
 25 26  2  0  0  0  0
 27 29  1  0  0  0  0
 27 53  1  0  0  0  0
 28 30  2  0  0  0  0
 28 54  1  0  0  0  0
 29 31  2  0  0  0  0
 29 55  1  0  0  0  0
 30 31  1  0  0  0  0
 30 56  1  0  0  0  0
 31 57  1  0  0  0  0
 32 58  1  0  0  0  0
 32 59  1  0  0  0  0
 32 60  1  0  0  0  0
 33 61  1  0  0  0  0
 33 62  1  0  0  0  0
 33 63  1  0  0  0  0
M  END
> <PUBCHEM_COMPOUND_CID>
51136597

> <PUBCHEM_CONFORMER_RMSD>
1

> <PUBCHEM_CONFORMER_DIVERSEORDER>
1
6
9
23
15
32
71
34
84
59
89
21
74
75
48
87
26
50
91
40
65
3
82
10
62
45
70
25
58
57
77
4
67
33
28
11
7
38
90
17
14
83
49
80
69
68
61
51
13
78
42
20
29
43
41
36
44
79
76
86
93
85
19
56
54
73
63
81
37
64
8
46
92
31
12
16
52
24
5
72
66
47
22
18
55
27
60
35
88
53
39
2
30

> <PUBCHEM_MMFF94_PARTIAL_CHARGES>
38
1 -0.57
11 0.3
12 0.3
13 0.06
14 0.06
15 0.3
16 0.54
17 0.09
18 0.66
19 -0.14
2 -0.65
20 0.14
21 0.25
22 0.09
23 -0.15
24 -0.15
25 0.08
26 0.08
27 -0.15
28 -0.15
29 -0.15
3 -0.57
30 -0.15
31 -0.15
32 0.28
33 0.28
4 -0.36
5 -0.36
50 0.15
51 0.15
52 0.5
53 0.15
54 0.15
55 0.15
56 0.15
57 0.15
6 -0.66
7 -0.7

> <PUBCHEM_EFFECTIVE_ROTOR_COUNT>
9.6

> <PUBCHEM_PHARMACOPHORE_FEATURES>
11
1 1 acceptor
1 2 acceptor
1 3 acceptor
1 4 acceptor
1 5 acceptor
1 7 acceptor
3 2 3 18 anion
6 17 19 23 24 25 26 rings
6 22 27 28 29 30 31 rings
6 6 8 9 10 11 12 rings
6 7 15 17 19 20 21 rings

> <PUBCHEM_HEAVY_ATOM_COUNT>
33

> <PUBCHEM_ATOM_DEF_STEREO_COUNT>
2

> <PUBCHEM_ATOM_UDEF_STEREO_COUNT>
0

> <PUBCHEM_BOND_DEF_STEREO_COUNT>
0

> <PUBCHEM_BOND_UDEF_STEREO_COUNT>
0

> <PUBCHEM_ISOTOPIC_ATOM_COUNT>
0

> <PUBCHEM_COMPONENT_COUNT>
1

> <PUBCHEM_CACTVS_TAUTO_COUNT>
1

> <PUBCHEM_CONFORMER_ID>
030C485500000001

> <PUBCHEM_MMFF94_ENERGY>
110.8392

> <PUBCHEM_FEATURE_SELFOVERLAP>
55.912

> <PUBCHEM_SHAPE_FINGERPRINT>
10119406 146 17478048255895716926
11135609 12 18334849533290095600
12107698 1 18411416206842734971
12156800 1 16471411507095556565
12422481 6 18343309150026208905
12633257 1 16988563541471500826
13140716 1 18342738468984286264
13965767 371 17845388793621609770
14840074 17 18053674842990738917
16728300 4 18191576463330618002
20764821 26 17917721158524921460
22182313 1 17773042955981515830
23559900 14 16805888518974661151
24893992 56 17821726162159768619
3380486 145 18129948875126289294
35225 105 18047170974066601221
513202 73 18197505013470111950
70251023 43 18196627774266801582

> <PUBCHEM_SHAPE_MULTIPOLES>
639.82
10.46
4.16
2.53
9.52
3.61
0.3
-9.13
3.94
0.36
-0.34
-2.76
-0.82
1.02

> <PUBCHEM_SHAPE_SELFOVERLAP>
1373.095

> <PUBCHEM_SHAPE_VOLUME>
351.1

> <PUBCHEM_COORDINATE_TYPE>
2
5
10

$$$$
