38028801
  -OEChem-12032416223D

 60 62  0     1  0  0  0  0  0999 V2000
   -3.8867    0.7568   -0.1293 O   0  0  0  0  0  0  0  0  0  0  0  0
    3.4110    0.4459   -1.5600 O   0  0  0  0  0  0  0  0  0  0  0  0
   -3.3212   -1.4829   -0.1685 N   0  0  0  0  0  0  0  0  0  0  0  0
    2.5637    0.9342    0.5446 N   0  0  0  0  0  0  0  0  0  0  0  0
    2.5788   -1.7193    1.0924 N   0  0  0  0  0  0  0  0  0  0  0  0
    3.4702   -3.6288   -0.7583 N   0  0  0  0  0  0  0  0  0  0  0  0
    0.1326    2.2906   -0.5928 C   0  0  2  0  0  0  0  0  0  0  0  0
   -1.3483    2.4151   -0.2034 C   0  0  0  0  0  0  0  0  0  0  0  0
    1.0373    2.8366    0.5401 C   0  0  1  0  0  0  0  0  0  0  0  0
   -1.6758    1.6514    1.0936 C   0  0  2  0  0  0  0  0  0  0  0  0
    0.3828    3.0149   -1.9193 C   0  0  0  0  0  0  0  0  0  0  0  0
   -0.6632    1.9344    2.1846 C   0  0  0  0  0  0  0  0  0  0  0  0
    0.5387    2.4766    1.9201 C   0  0  0  0  0  0  0  0  0  0  0  0
   -1.7953    0.1457    0.8328 C   0  0  0  0  0  0  0  0  0  0  0  0
    2.4821    2.3513    0.3766 C   0  0  0  0  0  0  0  0  0  0  0  0
   -0.0217    2.1294   -3.0936 C   0  0  0  0  0  0  0  0  0  0  0  0
   -0.3746    4.3384   -1.9537 C   0  0  0  0  0  0  0  0  0  0  0  0
   -3.0974   -0.1521    0.1335 C   0  0  0  0  0  0  0  0  0  0  0  0
   -1.0816    1.6215    3.5944 C   0  0  0  0  0  0  0  0  0  0  0  0
   -4.5329   -1.9350   -0.8365 C   0  0  0  0  0  0  0  0  0  0  0  0
   -2.4283   -2.6031    0.1110 C   0  0  0  0  0  0  0  0  0  0  0  0
   -4.2252   -3.3639   -1.2567 C   0  0  0  0  0  0  0  0  0  0  0  0
   -3.2719   -3.8392   -0.1675 C   0  0  0  0  0  0  0  0  0  0  0  0
    3.0291    0.0776   -0.4523 C   0  0  0  0  0  0  0  0  0  0  0  0
    3.0271   -1.3727   -0.1305 C   0  0  0  0  0  0  0  0  0  0  0  0
    3.4649   -2.3107   -1.0396 C   0  0  0  0  0  0  0  0  0  0  0  0
    2.5841   -3.0374    1.3737 C   0  0  0  0  0  0  0  0  0  0  0  0
    3.0219   -3.9752    0.4646 C   0  0  0  0  0  0  0  0  0  0  0  0
    0.3550    1.2273   -0.7388 H   0  0  0  0  0  0  0  0  0  0  0  0
   -1.9952    2.0838   -1.0210 H   0  0  0  0  0  0  0  0  0  0  0  0
   -1.6086    3.4625   -0.0028 H   0  0  0  0  0  0  0  0  0  0  0  0
    1.0557    3.9328    0.4986 H   0  0  0  0  0  0  0  0  0  0  0  0
   -2.6381    2.0409    1.4554 H   0  0  0  0  0  0  0  0  0  0  0  0
    1.4490    3.2316   -2.0408 H   0  0  0  0  0  0  0  0  0  0  0  0
    1.2076    2.7014    2.7486 H   0  0  0  0  0  0  0  0  0  0  0  0
   -1.8072   -0.4066    1.7786 H   0  0  0  0  0  0  0  0  0  0  0  0
   -0.9609   -0.2355    0.2361 H   0  0  0  0  0  0  0  0  0  0  0  0
    3.1185    2.7948    1.1520 H   0  0  0  0  0  0  0  0  0  0  0  0
    2.9080    2.6523   -0.5843 H   0  0  0  0  0  0  0  0  0  0  0  0
   -1.0883    1.8851   -3.0834 H   0  0  0  0  0  0  0  0  0  0  0  0
    0.5417    1.1900   -3.0877 H   0  0  0  0  0  0  0  0  0  0  0  0
    0.1909    2.6332   -4.0431 H   0  0  0  0  0  0  0  0  0  0  0  0
   -0.0384    4.9224   -2.8196 H   0  0  0  0  0  0  0  0  0  0  0  0
   -0.1845    4.9575   -1.0720 H   0  0  0  0  0  0  0  0  0  0  0  0
   -1.4549    4.2132   -2.0819 H   0  0  0  0  0  0  0  0  0  0  0  0
   -2.0217    2.1292    3.8336 H   0  0  0  0  0  0  0  0  0  0  0  0
   -0.3368    1.9517    4.3265 H   0  0  0  0  0  0  0  0  0  0  0  0
   -1.2212    0.5457    3.7334 H   0  0  0  0  0  0  0  0  0  0  0  0
   -5.3491   -1.8968   -0.1066 H   0  0  0  0  0  0  0  0  0  0  0  0
   -4.7811   -1.2825   -1.6787 H   0  0  0  0  0  0  0  0  0  0  0  0
   -1.5787   -2.5338   -0.5768 H   0  0  0  0  0  0  0  0  0  0  0  0
   -2.0598   -2.5730    1.1396 H   0  0  0  0  0  0  0  0  0  0  0  0
    2.3077    0.5369    1.4442 H   0  0  0  0  0  0  0  0  0  0  0  0
   -3.7117   -3.3688   -2.2257 H   0  0  0  0  0  0  0  0  0  0  0  0
   -5.1232   -3.9819   -1.3401 H   0  0  0  0  0  0  0  0  0  0  0  0
   -3.8417   -4.1146    0.7282 H   0  0  0  0  0  0  0  0  0  0  0  0
   -2.6702   -4.7005   -0.4701 H   0  0  0  0  0  0  0  0  0  0  0  0
    3.8289   -2.0503   -2.0265 H   0  0  0  0  0  0  0  0  0  0  0  0
    2.2235   -3.3164    2.3559 H   0  0  0  0  0  0  0  0  0  0  0  0
    3.0256   -5.0342    0.6913 H   0  0  0  0  0  0  0  0  0  0  0  0
  1 18  2  0  0  0  0
  2 24  2  0  0  0  0
  3 18  1  0  0  0  0
  3 20  1  0  0  0  0
  3 21  1  0  0  0  0
  4 15  1  0  0  0  0
  4 24  1  0  0  0  0
  4 53  1  0  0  0  0
  5 25  2  0  0  0  0
  5 27  1  0  0  0  0
  6 26  2  0  0  0  0
  6 28  1  0  0  0  0
  7  8  1  0  0  0  0
  7  9  1  0  0  0  0
  7 11  1  0  0  0  0
  7 29  1  0  0  0  0
  8 10  1  0  0  0  0
  8 30  1  0  0  0  0
  8 31  1  0  0  0  0
  9 13  1  0  0  0  0
  9 15  1  0  0  0  0
  9 32  1  0  0  0  0
 10 12  1  0  0  0  0
 10 14  1  0  0  0  0
 10 33  1  0  0  0  0
 11 16  1  0  0  0  0
 11 17  1  0  0  0  0
 11 34  1  0  0  0  0
 12 13  2  0  0  0  0
 12 19  1  0  0  0  0
 13 35  1  0  0  0  0
 14 18  1  0  0  0  0
 14 36  1  0  0  0  0
 14 37  1  0  0  0  0
 15 38  1  0  0  0  0
 15 39  1  0  0  0  0
 16 40  1  0  0  0  0
 16 41  1  0  0  0  0
 16 42  1  0  0  0  0
 17 43  1  0  0  0  0
 17 44  1  0  0  0  0
 17 45  1  0  0  0  0
 19 46  1  0  0  0  0
 19 47  1  0  0  0  0
 19 48  1  0  0  0  0
 20 22  1  0  0  0  0
 20 49  1  0  0  0  0
 20 50  1  0  0  0  0
 21 23  1  0  0  0  0
 21 51  1  0  0  0  0
 21 52  1  0  0  0  0
 22 23  1  0  0  0  0
 22 54  1  0  0  0  0
 22 55  1  0  0  0  0
 23 56  1  0  0  0  0
 23 57  1  0  0  0  0
 24 25  1  0  0  0  0
 25 26  1  0  0  0  0
 26 58  1  0  0  0  0
 27 28  2  0  0  0  0
 27 59  1  0  0  0  0
 28 60  1  0  0  0  0
M  END
> <PUBCHEM_COMPOUND_CID>
38028801

> <PUBCHEM_CONFORMER_RMSD>
1

> <PUBCHEM_CONFORMER_DIVERSEORDER>
1
175
163
167
186
26
144
44
116
110
61
40
119
81
202
225
24
184
134
150
112
224
219
113
97
158
129
118
154
14
63
149
54
87
180
138
105
72
191
8
3
107
47
217
35
145
155
46
18
76
117
123
164
10
85
125
64
159
115
192
197
70
204
67
106
170
188
31
32
171
133
111
102
48
203
139
190
172
27
208
90
53
60
92
194
55
132
218
127
12
96
187
126
181
121
195
25
49
151
207
9
2
130
108
176
15
152
223
128
73
11
212
148
161
7
173
16
216
135
114
94
37
137
69
222
52
122
19
166
140
157
38
86
33
71
100
174
165
51
84
22
57
109
43
20
101
82
201
169
210
136
36
221
95
200
68
168
178
160
66
183
79
93
98
91
153
88
42
77
65
39
182
4
62
45
142
209
147
162
75
220
104
23
103
185
28
5
83
78
143
124
6
59
80
146
198
179
206
89
156
99
213
34
13
214
29
21
215
211
131
17
196
177
58
120
74
193
199
205
30
141
41
189
56
50

> <PUBCHEM_MMFF94_PARTIAL_CHARGES>
26
1 -0.57
10 0.14
12 -0.28
13 -0.29
14 0.06
15 0.3
18 0.57
19 0.14
2 -0.57
20 0.3
21 0.3
24 0.54
25 0.4
26 0.16
27 0.16
28 0.16
3 -0.66
35 0.15
4 -0.73
5 -0.62
53 0.37
58 0.15
59 0.15
6 -0.62
60 0.15
9 0.14

> <PUBCHEM_EFFECTIVE_ROTOR_COUNT>
9.8

> <PUBCHEM_PHARMACOPHORE_FEATURES>
9
1 1 acceptor
1 2 acceptor
1 4 donor
1 5 acceptor
1 6 acceptor
3 11 16 17 hydrophobe
5 3 20 21 22 23 rings
6 5 6 25 26 27 28 rings
6 7 8 9 10 12 13 rings

> <PUBCHEM_HEAVY_ATOM_COUNT>
28

> <PUBCHEM_ATOM_DEF_STEREO_COUNT>
3

> <PUBCHEM_ATOM_UDEF_STEREO_COUNT>
0

> <PUBCHEM_BOND_DEF_STEREO_COUNT>
0

> <PUBCHEM_BOND_UDEF_STEREO_COUNT>
0

> <PUBCHEM_ISOTOPIC_ATOM_COUNT>
0

> <PUBCHEM_COMPONENT_COUNT>
1

> <PUBCHEM_CACTVS_TAUTO_COUNT>
2

> <PUBCHEM_CONFORMER_ID>
0244460100000001

> <PUBCHEM_MMFF94_ENERGY>
62.2459

> <PUBCHEM_FEATURE_SELFOVERLAP>
45.676

> <PUBCHEM_SHAPE_FINGERPRINT>
10064457 181 17187555586422544228
114674 6 17696466665152743611
12633257 1 17697051231808206768
13122387 1 18340768251131350755
13994607 96 12069531591382028293
14251757 5 17907315260110385878
14863182 85 17835517502644650185
17974551 9 15549688499790252870
18681886 176 17181075048051896417
20775438 99 17689662698569548159
20775530 9 18411984637121977230
21344244 181 17759494717901536485
21860390 5 15290395495923890525
23559900 14 18049992596403997167
238 59 17608662943491614968
25265897 201 14432269040233553510
26353 1 17821449062283324301
3052486 1 15167131648088765465
35225 105 17905332818648001222
46194498 28 17534891198574066199
463206 1 18409453552907106618
469060 322 18259989284334305252
6433294 58 18197773504243494643
66674814 147 18046343299793799346
86090 222 17404300089114265587

> <PUBCHEM_SHAPE_MULTIPOLES>
544.56
7.21
6.49
2.5
6.8
3.51
0.67
8.89
-2.14
-2.86
-1.37
-0.2
-2.72
-1.21

> <PUBCHEM_SHAPE_SELFOVERLAP>
1132.383

> <PUBCHEM_SHAPE_VOLUME>
308.4

> <PUBCHEM_COORDINATE_TYPE>
2
5
10

$$$$
