11911729
  -OEChem-12032416383D

 62 66  0     1  0  0  0  0  0999 V2000
    4.3952    2.2891   -0.6145 S   0  0  0  0  0  0  0  0  0  0  0  0
    0.2969    1.3307    1.5446 O   0  0  0  0  0  0  0  0  0  0  0  0
    2.3006   -0.9631    2.2230 O   0  0  0  0  0  0  0  0  0  0  0  0
    4.8632    3.2375    0.3782 O   0  0  0  0  0  0  0  0  0  0  0  0
    4.3889    2.6473   -2.0199 O   0  0  0  0  0  0  0  0  0  0  0  0
    2.8482    1.7371   -0.1835 N   0  0  0  0  0  0  0  0  0  0  0  0
   -0.2826   -2.2465    1.1011 N   0  0  0  0  0  0  0  0  0  0  0  0
   -2.3875   -1.5048    0.3763 N   0  0  0  0  0  0  0  0  0  0  0  0
   -1.5271   -3.6484   -0.3104 N   0  0  0  0  0  0  0  0  0  0  0  0
    3.5243   -0.1569   -3.3106 N   0  0  0  0  0  0  0  0  0  0  0  0
   -7.4049    2.3160   -0.2655 N   0  0  0  0  0  0  0  0  0  0  0  0
    2.0291   -0.2152    1.0261 C   0  0  1  0  0  0  0  0  0  0  0  0
    0.5337    0.0311    0.9775 C   0  0  1  0  0  0  0  0  0  0  0  0
    2.6270    1.1696    1.1245 C   0  0  2  0  0  0  0  0  0  0  0  0
   -0.0468   -1.0425    1.8674 C   0  0  2  0  0  0  0  0  0  0  0  0
    1.5552    1.9333    1.8818 C   0  0  0  0  0  0  0  0  0  0  0  0
    1.0617   -1.2722    2.8783 C   0  0  0  0  0  0  0  0  0  0  0  0
   -1.4332   -2.4733    0.3670 C   0  0  0  0  0  0  0  0  0  0  0  0
    5.3632    0.8179   -0.4618 C   0  0  0  0  0  0  0  0  0  0  0  0
    5.2175   -0.2364   -1.3511 C   0  0  0  0  0  0  0  0  0  0  0  0
    6.2749    0.7531    0.5827 C   0  0  0  0  0  0  0  0  0  0  0  0
   -3.4959   -1.7588   -0.3498 C   0  0  0  0  0  0  0  0  0  0  0  0
   -2.6620   -3.8366   -1.0153 C   0  0  0  0  0  0  0  0  0  0  0  0
    5.9996   -1.3806   -1.1933 C   0  0  0  0  0  0  0  0  0  0  0  0
    7.0572   -0.3910    0.7405 C   0  0  0  0  0  0  0  0  0  0  0  0
   -3.6901   -2.9182   -1.0725 C   0  0  0  0  0  0  0  0  0  0  0  0
    6.9195   -1.4578   -0.1475 C   0  0  0  0  0  0  0  0  0  0  0  0
   -4.4953   -0.7176   -0.3270 C   0  0  0  0  0  0  0  0  0  0  0  0
    4.2819   -0.1924   -2.4340 C   0  0  0  0  0  0  0  0  0  0  0  0
   -5.8472   -1.0402   -0.4643 C   0  0  0  0  0  0  0  0  0  0  0  0
   -4.1136    0.6166   -0.1697 C   0  0  0  0  0  0  0  0  0  0  0  0
   -6.8125   -0.0334   -0.4441 C   0  0  0  0  0  0  0  0  0  0  0  0
   -5.0790    1.6233   -0.1495 C   0  0  0  0  0  0  0  0  0  0  0  0
   -6.4285    1.2982   -0.2868 C   0  0  0  0  0  0  0  0  0  0  0  0
   -7.1905    3.5224    0.5086 C   0  0  0  0  0  0  0  0  0  0  0  0
   -8.6411    2.1625   -1.0063 C   0  0  0  0  0  0  0  0  0  0  0  0
    2.3918   -0.8071    0.1802 H   0  0  0  0  0  0  0  0  0  0  0  0
    0.1394    0.0464   -0.0437 H   0  0  0  0  0  0  0  0  0  0  0  0
    3.5467    1.1801    1.7176 H   0  0  0  0  0  0  0  0  0  0  0  0
   -0.9564   -0.7342    2.3955 H   0  0  0  0  0  0  0  0  0  0  0  0
    1.5211    2.9999    1.6399 H   0  0  0  0  0  0  0  0  0  0  0  0
    1.6870    1.8289    2.9644 H   0  0  0  0  0  0  0  0  0  0  0  0
    1.1037   -2.2939    3.2685 H   0  0  0  0  0  0  0  0  0  0  0  0
    0.9650   -0.5854    3.7265 H   0  0  0  0  0  0  0  0  0  0  0  0
    2.1310    1.5942   -0.9044 H   0  0  0  0  0  0  0  0  0  0  0  0
    0.4437   -2.9515    1.0447 H   0  0  0  0  0  0  0  0  0  0  0  0
    6.4037    1.5634    1.2932 H   0  0  0  0  0  0  0  0  0  0  0  0
   -2.7211   -4.7754   -1.5557 H   0  0  0  0  0  0  0  0  0  0  0  0
    5.9047   -2.2219   -1.8759 H   0  0  0  0  0  0  0  0  0  0  0  0
    7.7726   -0.4521    1.5553 H   0  0  0  0  0  0  0  0  0  0  0  0
   -4.5638   -3.1238   -1.6775 H   0  0  0  0  0  0  0  0  0  0  0  0
    7.5281   -2.3488   -0.0241 H   0  0  0  0  0  0  0  0  0  0  0  0
   -6.1926   -2.0661   -0.5613 H   0  0  0  0  0  0  0  0  0  0  0  0
   -3.0695    0.9054   -0.0736 H   0  0  0  0  0  0  0  0  0  0  0  0
   -7.8561   -0.3215   -0.5357 H   0  0  0  0  0  0  0  0  0  0  0  0
   -4.7460    2.6514   -0.0395 H   0  0  0  0  0  0  0  0  0  0  0  0
   -8.1355    4.0438    0.6981 H   0  0  0  0  0  0  0  0  0  0  0  0
   -6.7527    3.2982    1.4878 H   0  0  0  0  0  0  0  0  0  0  0  0
   -6.5341    4.2159   -0.0275 H   0  0  0  0  0  0  0  0  0  0  0  0
   -9.3467    1.5305   -0.4570 H   0  0  0  0  0  0  0  0  0  0  0  0
   -9.1256    3.1315   -1.1707 H   0  0  0  0  0  0  0  0  0  0  0  0
   -8.4645    1.7274   -1.9965 H   0  0  0  0  0  0  0  0  0  0  0  0
  1  4  2  0  0  0  0
  1  5  2  0  0  0  0
  1  6  1  0  0  0  0
  1 19  1  0  0  0  0
  2 13  1  0  0  0  0
  2 16  1  0  0  0  0
  3 12  1  0  0  0  0
  3 17  1  0  0  0  0
  6 14  1  0  0  0  0
  6 45  1  0  0  0  0
  7 15  1  0  0  0  0
  7 18  1  0  0  0  0
  7 46  1  0  0  0  0
  8 18  1  0  0  0  0
  8 22  2  0  0  0  0
  9 18  2  0  0  0  0
  9 23  1  0  0  0  0
 10 29  3  0  0  0  0
 11 34  1  0  0  0  0
 11 35  1  0  0  0  0
 11 36  1  0  0  0  0
 12 13  1  0  0  0  0
 12 14  1  0  0  0  0
 12 37  1  0  0  0  0
 13 15  1  0  0  0  0
 13 38  1  0  0  0  0
 14 16  1  0  0  0  0
 14 39  1  0  0  0  0
 15 17  1  0  0  0  0
 15 40  1  0  0  0  0
 16 41  1  0  0  0  0
 16 42  1  0  0  0  0
 17 43  1  0  0  0  0
 17 44  1  0  0  0  0
 19 20  1  0  0  0  0
 19 21  2  0  0  0  0
 20 24  2  0  0  0  0
 20 29  1  0  0  0  0
 21 25  1  0  0  0  0
 21 47  1  0  0  0  0
 22 26  1  0  0  0  0
 22 28  1  0  0  0  0
 23 26  2  0  0  0  0
 23 48  1  0  0  0  0
 24 27  1  0  0  0  0
 24 49  1  0  0  0  0
 25 27  2  0  0  0  0
 25 50  1  0  0  0  0
 26 51  1  0  0  0  0
 27 52  1  0  0  0  0
 28 30  2  0  0  0  0
 28 31  1  0  0  0  0
 30 32  1  0  0  0  0
 30 53  1  0  0  0  0
 31 33  2  0  0  0  0
 31 54  1  0  0  0  0
 32 34  2  0  0  0  0
 32 55  1  0  0  0  0
 33 34  1  0  0  0  0
 33 56  1  0  0  0  0
 35 57  1  0  0  0  0
 35 58  1  0  0  0  0
 35 59  1  0  0  0  0
 36 60  1  0  0  0  0
 36 61  1  0  0  0  0
 36 62  1  0  0  0  0
M  END
> <PUBCHEM_COMPOUND_CID>
11911729

> <PUBCHEM_CONFORMER_RMSD>
1

> <PUBCHEM_CONFORMER_DIVERSEORDER>
1
157
37
164
99
196
24
63
234
245
114
51
137
81
208
103
166
147
87
118
218
139
252
27
172
79
177
204
187
144
70
209
189
239
91
134
132
128
165
38
251
244
141
126
182
202
130
256
211
148
131
221
232
142
6
175
30
163
83
127
97
150
155
205
201
46
170
29
9
78
181
45
96
50
162
33
197
203
195
192
176
246
210
229
225
71
238
62
220
93
92
56
226
219
35
184
140
156
77
113
138
7
74
10
100
125
68
43
161
129
110
52
193
20
16
253
206
167
145
200
89
190
191
180
215
17
121
173
111
168
223
243
171
40
136
15
235
133
257
67
65
185
198
216
152
88
53
194
169
115
66
98
254
199
227
39
207
2
101
158
34
85
12
250
41
186
8
49
94
178
183
112
143
86
120
106
108
231
60
249
230
69
5
55
247
240
135
248
36
116
153
107
14
73
146
42
75
31
4
90
154
237
105
109
80
228
123
48
151
159
58
233
61
22
160
174
117
18
76
242
95
255
236
54
102
3
214
241
124
72
224
47
104
82
11
32
188
217
13
222
84
213
122
23
26
119
28
64
19
44
21
149
179
212
25
57
59

> <PUBCHEM_MMFF94_PARTIAL_CHARGES>
47
1 1.45
10 -0.56
11 -0.84
12 0.28
13 0.28
14 0.36
15 0.37
16 0.28
17 0.28
18 0.72
19 -0.01
2 -0.56
20 0.07
21 -0.15
22 0.31
23 0.16
24 -0.15
25 -0.15
26 -0.15
27 -0.15
29 0.48
3 -0.56
30 -0.15
31 -0.15
32 -0.15
33 -0.15
34 0.1
35 0.37
36 0.37
4 -0.65
45 0.42
46 0.4
47 0.15
48 0.15
49 0.15
5 -0.65
50 0.15
51 0.15
52 0.15
53 0.15
54 0.15
55 0.15
56 0.15
6 -0.91
7 -0.87
8 -0.62
9 -0.62

> <PUBCHEM_EFFECTIVE_ROTOR_COUNT>
8.2

> <PUBCHEM_PHARMACOPHORE_FEATURES>
15
1 10 acceptor
1 11 cation
1 2 acceptor
1 3 acceptor
1 4 acceptor
1 5 acceptor
1 6 donor
1 7 donor
1 8 acceptor
4 7 8 9 18 cation
5 2 12 13 14 16 rings
5 3 12 13 15 17 rings
6 19 20 21 24 25 27 rings
6 28 30 31 32 33 34 rings
6 8 9 18 22 23 26 rings

> <PUBCHEM_HEAVY_ATOM_COUNT>
36

> <PUBCHEM_ATOM_DEF_STEREO_COUNT>
4

> <PUBCHEM_ATOM_UDEF_STEREO_COUNT>
0

> <PUBCHEM_BOND_DEF_STEREO_COUNT>
0

> <PUBCHEM_BOND_UDEF_STEREO_COUNT>
0

> <PUBCHEM_ISOTOPIC_ATOM_COUNT>
0

> <PUBCHEM_COMPONENT_COUNT>
1

> <PUBCHEM_CACTVS_TAUTO_COUNT>
3

> <PUBCHEM_CONFORMER_ID>
00B5C23100000001

> <PUBCHEM_MMFF94_ENERGY>
108.1772

> <PUBCHEM_FEATURE_SELFOVERLAP>
76.849

> <PUBCHEM_SHAPE_FINGERPRINT>
10190108 129 16950563229624888756
10483366 6 18270684164563850354
10670039 82 18410566280755686133
10674148 151 18333730209172822818
10794284 68 10954614092425368600
10816530 90 18336257938474949490
10864689 126 18342447120226298921
11621639 336 17751916926433320516
11828532 37 18268151049241470111
11973864 155 17771078099250625137
1200032 147 18262242106386766603
12098696 120 18411418372366290233
13782708 43 16843602927823302695
13944108 23 17980198587665330481
14664723 55 18409731738730457813
14840074 17 17022619806103623637
15183329 4 18131079259189881514
15297060 5 18273216379230560529
15357212 105 14998003335591703654
15419008 42 17918001554932201198
15684389 69 10447634817192420746
16992727 255 18412826863239720705
19309040 13 16518249702049441590
19315092 285 13829305870825494486
19958102 18 18059866038352612971
20715895 44 18411141333784769814
21315764 119 18343022198697202574
21458453 9 11169919389655385557
21781055 127 17702663238547233691
21987440 362 17974288724981147101
22864921 10 17969778588825398173
23559900 14 17774714380885010195
23572383 38 17632306691845068534
2747138 104 7853570218828851695
3610482 184 18042697280264851982
38570 142 18040152920422607107
4058900 60 18336266735522793019
4098825 35 18270118040587645850
4149490 64 13325988072270137799
4173938 306 17346305012861814162
4173938 77 17240769540041766301
42767 46 18113337501026005125
4394409 98 17775287174898829470
444735 79 8358253731094896212
4461854 278 11603117028456723641
4756261 7 8285615582101471418
504579 68 18337656582597059157
508180 173 18343580755157752129
613672 6 15410346558300733238
6443934 186 9295293833165585998
6523845 18 14345791656841322256

> <PUBCHEM_SHAPE_MULTIPOLES>
691.35
22.3
3.92
2.12
17.89
0.71
-0.1
-13.49
-8.21
4.6
-0.5
-3.14
0.23
-0.41

> <PUBCHEM_SHAPE_SELFOVERLAP>
1496.015

> <PUBCHEM_SHAPE_VOLUME>
380.7

> <PUBCHEM_COORDINATE_TYPE>
2
5
10

$$$$
