75536097
  -OEChem-12032416293D

 47 49  0     1  0  0  0  0  0999 V2000
   -1.6913    2.7707    0.2784 S   0  0  0  0  0  0  0  0  0  0  0  0
   -3.4830   -1.2782    1.7263 O   0  0  0  0  0  0  0  0  0  0  0  0
   -5.0127   -2.3372   -0.3105 O   0  0  0  0  0  0  0  0  0  0  0  0
   -2.0464    2.8400    1.6830 O   0  0  0  0  0  0  0  0  0  0  0  0
   -1.8813    3.9243   -0.5799 O   0  0  0  0  0  0  0  0  0  0  0  0
    3.5832   -2.6300    0.1374 O   0  0  0  0  0  0  0  0  0  0  0  0
   -2.4521    1.4283   -0.4316 N   0  0  0  0  0  0  0  0  0  0  0  0
    5.2072    0.9549   -0.1625 N   0  0  0  0  0  0  0  0  0  0  0  0
   -2.2747    0.0767    0.1612 C   0  0  2  0  0  0  0  0  0  0  0  0
   -1.7002   -0.8840   -0.9163 C   0  0  2  0  0  0  0  0  0  0  0  0
   -3.6456   -0.4953    0.5448 C   0  0  1  0  0  0  0  0  0  0  0  0
   -2.7098   -2.0403   -1.0132 C   0  0  0  0  0  0  0  0  0  0  0  0
   -4.0274   -1.3796   -0.6391 C   0  0  1  0  0  0  0  0  0  0  0  0
   -0.2890   -1.3505   -0.6354 C   0  0  0  0  0  0  0  0  0  0  0  0
    0.7263   -1.0982   -1.5581 C   0  0  0  0  0  0  0  0  0  0  0  0
   -0.0029   -2.0330    0.5470 C   0  0  0  0  0  0  0  0  0  0  0  0
    0.0150    2.3218    0.1694 C   0  0  0  0  0  0  0  0  0  0  0  0
    2.0275   -1.5284   -1.2985 C   0  0  0  0  0  0  0  0  0  0  0  0
    1.2982   -2.4634    0.8067 C   0  0  0  0  0  0  0  0  0  0  0  0
    2.3134   -2.2111   -0.1162 C   0  0  0  0  0  0  0  0  0  0  0  0
    0.7591    2.6769   -0.9557 C   0  0  0  0  0  0  0  0  0  0  0  0
    0.6171    1.6126    1.2086 C   0  0  0  0  0  0  0  0  0  0  0  0
    2.1055    2.3228   -1.0414 C   0  0  0  0  0  0  0  0  0  0  0  0
    1.9635    1.2585    1.1228 C   0  0  0  0  0  0  0  0  0  0  0  0
    2.7078    1.6137   -0.0021 C   0  0  0  0  0  0  0  0  0  0  0  0
    3.8053   -3.3221    1.3654 C   0  0  0  0  0  0  0  0  0  0  0  0
    4.0871    1.2502   -0.0906 C   0  0  0  0  0  0  0  0  0  0  0  0
   -1.6440    0.1334    1.0505 H   0  0  0  0  0  0  0  0  0  0  0  0
   -1.7032   -0.3739   -1.8904 H   0  0  0  0  0  0  0  0  0  0  0  0
   -4.4103    0.2610    0.7495 H   0  0  0  0  0  0  0  0  0  0  0  0
   -2.7432   -2.4703   -2.0206 H   0  0  0  0  0  0  0  0  0  0  0  0
   -2.4883   -2.8706   -0.3319 H   0  0  0  0  0  0  0  0  0  0  0  0
   -4.3941   -0.7636   -1.4692 H   0  0  0  0  0  0  0  0  0  0  0  0
   -2.8544    1.4892   -1.3744 H   0  0  0  0  0  0  0  0  0  0  0  0
   -3.2383   -0.6721    2.4463 H   0  0  0  0  0  0  0  0  0  0  0  0
   -5.1331   -2.9110   -1.0862 H   0  0  0  0  0  0  0  0  0  0  0  0
    0.5201   -0.5674   -2.4835 H   0  0  0  0  0  0  0  0  0  0  0  0
   -0.7786   -2.2371    1.2797 H   0  0  0  0  0  0  0  0  0  0  0  0
    2.8140   -1.3294   -2.0213 H   0  0  0  0  0  0  0  0  0  0  0  0
    1.4508   -2.9862    1.7446 H   0  0  0  0  0  0  0  0  0  0  0  0
    0.3084    3.2216   -1.7803 H   0  0  0  0  0  0  0  0  0  0  0  0
    0.0615    1.3316    2.0985 H   0  0  0  0  0  0  0  0  0  0  0  0
    2.6719    2.6040   -1.9260 H   0  0  0  0  0  0  0  0  0  0  0  0
    2.4193    0.7067    1.9415 H   0  0  0  0  0  0  0  0  0  0  0  0
    4.8684   -3.5818    1.4022 H   0  0  0  0  0  0  0  0  0  0  0  0
    3.2448   -4.2622    1.4048 H   0  0  0  0  0  0  0  0  0  0  0  0
    3.6028   -2.6810    2.2302 H   0  0  0  0  0  0  0  0  0  0  0  0
  1  4  2  0  0  0  0
  1  5  2  0  0  0  0
  1  7  1  0  0  0  0
  1 17  1  0  0  0  0
  2 11  1  0  0  0  0
  2 35  1  0  0  0  0
  3 13  1  0  0  0  0
  3 36  1  0  0  0  0
  6 20  1  0  0  0  0
  6 26  1  0  0  0  0
  7  9  1  0  0  0  0
  7 34  1  0  0  0  0
  8 27  3  0  0  0  0
  9 10  1  0  0  0  0
  9 11  1  0  0  0  0
  9 28  1  0  0  0  0
 10 12  1  0  0  0  0
 10 14  1  0  0  0  0
 10 29  1  0  0  0  0
 11 13  1  0  0  0  0
 11 30  1  0  0  0  0
 12 13  1  0  0  0  0
 12 31  1  0  0  0  0
 12 32  1  0  0  0  0
 13 33  1  0  0  0  0
 14 15  2  0  0  0  0
 14 16  1  0  0  0  0
 15 18  1  0  0  0  0
 15 37  1  0  0  0  0
 16 19  2  0  0  0  0
 16 38  1  0  0  0  0
 17 21  2  0  0  0  0
 17 22  1  0  0  0  0
 18 20  2  0  0  0  0
 18 39  1  0  0  0  0
 19 20  1  0  0  0  0
 19 40  1  0  0  0  0
 21 23  1  0  0  0  0
 21 41  1  0  0  0  0
 22 24  2  0  0  0  0
 22 42  1  0  0  0  0
 23 25  2  0  0  0  0
 23 43  1  0  0  0  0
 24 25  1  0  0  0  0
 24 44  1  0  0  0  0
 25 27  1  0  0  0  0
 26 45  1  0  0  0  0
 26 46  1  0  0  0  0
 26 47  1  0  0  0  0
M  END
> <PUBCHEM_COMPOUND_CID>
75536097

> <PUBCHEM_CONFORMER_RMSD>
0.8

> <PUBCHEM_CONFORMER_DIVERSEORDER>
1
14
24
21
20
18
4
10
11
6
25
3
8
23
19
13
17
9
16
7
22
12
15
2
5

> <PUBCHEM_MMFF94_PARTIAL_CHARGES>
37
1 1.45
10 0.14
11 0.28
13 0.28
14 -0.14
15 -0.15
16 -0.15
17 -0.01
18 -0.15
19 -0.15
2 -0.68
20 0.08
21 -0.15
22 -0.15
23 -0.15
24 -0.15
25 0.07
26 0.28
27 0.48
3 -0.68
34 0.42
35 0.4
36 0.4
37 0.15
38 0.15
39 0.15
4 -0.65
40 0.15
41 0.15
42 0.15
43 0.15
44 0.15
5 -0.65
6 -0.36
7 -0.91
8 -0.56
9 0.36

> <PUBCHEM_EFFECTIVE_ROTOR_COUNT>
6

> <PUBCHEM_PHARMACOPHORE_FEATURES>
12
1 2 acceptor
1 2 donor
1 3 acceptor
1 3 donor
1 4 acceptor
1 5 acceptor
1 6 acceptor
1 7 donor
1 8 acceptor
5 9 10 11 12 13 rings
6 14 15 16 18 19 20 rings
6 17 21 22 23 24 25 rings

> <PUBCHEM_HEAVY_ATOM_COUNT>
27

> <PUBCHEM_ATOM_DEF_STEREO_COUNT>
4

> <PUBCHEM_ATOM_UDEF_STEREO_COUNT>
0

> <PUBCHEM_BOND_DEF_STEREO_COUNT>
0

> <PUBCHEM_BOND_UDEF_STEREO_COUNT>
0

> <PUBCHEM_ISOTOPIC_ATOM_COUNT>
0

> <PUBCHEM_COMPONENT_COUNT>
1

> <PUBCHEM_CACTVS_TAUTO_COUNT>
1

> <PUBCHEM_CONFORMER_ID>
048096E100000001

> <PUBCHEM_MMFF94_ENERGY>
67.3751

> <PUBCHEM_FEATURE_SELFOVERLAP>
60.928

> <PUBCHEM_SHAPE_FINGERPRINT>
10382601 240 18270140009345020920
104564 63 18342738524739518844
1100329 8 17978789009035786192
11578080 2 17750217132715778903
12156800 1 16307058527256807692
12422481 6 18272098140875330992
12553582 1 18267572688449278097
12788726 201 18054811708302814836
13140716 1 17980204410944320392
13965767 371 17771943521668159265
14117953 113 16969419613850178324
19591789 44 17761212519640313671
20600515 1 17768809763136602534
20691752 17 18114194020261782381
20905425 154 18343586235066243212
21421861 104 18410584954587628787
23227448 37 18050001095885540212
23558518 356 18336274431276089657
3052486 1 18335996302458717852
463206 1 18125998519095627295
474 4 18192993948503311199
484985 159 15513847740829746458
59755656 215 18338792415935134167
70251023 43 18412827954589136167
7471813 234 18268128929680010495

> <PUBCHEM_SHAPE_MULTIPOLES>
520.19
7.49
4.67
1.36
0.27
1.29
-0.16
-3.53
-0.52
-0.88
-0.46
0.04
-0.15
-1.16

> <PUBCHEM_SHAPE_SELFOVERLAP>
1102.338

> <PUBCHEM_SHAPE_VOLUME>
291.9

> <PUBCHEM_COORDINATE_TYPE>
2
5
10

$$$$
