45361016
  -OEChem-12032416333D

 64 67  0     1  0  0  0  0  0999 V2000
   -8.3162   -1.6369   -1.4230 S   0  0  0  0  0  0  0  0  0  0  0  0
    1.5676   -1.4820   -0.3963 O   0  0  0  0  0  0  0  0  0  0  0  0
   -5.0301    0.5892   -1.6151 O   0  0  0  0  0  0  0  0  0  0  0  0
    8.7859   -1.7890   -1.0577 O   0  0  0  0  0  0  0  0  0  0  0  0
    3.0896    0.6137    0.3681 N   0  0  1  0  0  0  0  0  0  0  0  0
   -0.2284    1.9478   -0.4074 N   0  0  1  0  0  0  0  0  0  0  0  0
   -0.3331   -0.7389    0.6386 N   0  0  0  0  0  0  0  0  0  0  0  0
   -6.2605    1.0533    0.2979 N   0  0  0  0  0  0  0  0  0  0  0  0
    1.0839    1.9776    0.2756 C   0  0  1  0  0  0  0  0  0  0  0  0
    1.6786    0.6365    0.7973 C   0  0  1  0  0  0  0  0  0  0  0  0
    2.2310    2.5187   -0.5980 C   0  0  0  0  0  0  0  0  0  0  0  0
    3.4742    1.9924    0.0873 C   0  0  0  0  0  0  0  0  0  0  0  0
   -1.3614    1.5069    0.4534 C   0  0  2  0  0  0  0  0  0  0  0  0
    0.9938   -0.6219    0.2704 C   0  0  0  0  0  0  0  0  0  0  0  0
   -1.0585    0.2927    1.3531 C   0  0  0  0  0  0  0  0  0  0  0  0
    3.9775   -0.0170    1.3364 C   0  0  0  0  0  0  0  0  0  0  0  0
   -2.5886    1.1493   -0.4111 C   0  0  0  0  0  0  0  0  0  0  0  0
   -0.5304    3.2532   -1.0188 C   0  0  0  0  0  0  0  0  0  0  0  0
   -3.8685    1.2813    0.3933 C   0  0  0  0  0  0  0  0  0  0  0  0
    5.2573   -0.4891    0.6993 C   0  0  0  0  0  0  0  0  0  0  0  0
   -5.0904    0.9327   -0.4375 C   0  0  0  0  0  0  0  0  0  0  0  0
    5.2655   -1.6513   -0.0722 C   0  0  0  0  0  0  0  0  0  0  0  0
    6.4350    0.2361    0.8803 C   0  0  0  0  0  0  0  0  0  0  0  0
    6.4513   -2.0883   -0.6623 C   0  0  0  0  0  0  0  0  0  0  0  0
    7.6209   -0.2009    0.2902 C   0  0  0  0  0  0  0  0  0  0  0  0
    7.6290   -1.3630   -0.4810 C   0  0  0  0  0  0  0  0  0  0  0  0
   -7.5593    0.7779   -0.2691 C   0  0  0  0  0  0  0  0  0  0  0  0
   -7.9682   -0.6564   -0.0630 C   0  0  0  0  0  0  0  0  0  0  0  0
    9.9530   -0.9998   -0.8315 C   0  0  0  0  0  0  0  0  0  0  0  0
   -8.1157   -1.3441    1.1215 C   0  0  0  0  0  0  0  0  0  0  0  0
   -8.5195   -2.6940    0.9097 C   0  0  0  0  0  0  0  0  0  0  0  0
   -8.6653   -2.9865   -0.4285 C   0  0  0  0  0  0  0  0  0  0  0  0
    1.0060    2.6538    1.1411 H   0  0  0  0  0  0  0  0  0  0  0  0
    1.6214    0.6295    1.8939 H   0  0  0  0  0  0  0  0  0  0  0  0
    2.1689    2.1226   -1.6206 H   0  0  0  0  0  0  0  0  0  0  0  0
    2.2386    3.6123   -0.6491 H   0  0  0  0  0  0  0  0  0  0  0  0
    3.6723    2.5665    1.0013 H   0  0  0  0  0  0  0  0  0  0  0  0
    4.3456    2.0582   -0.5713 H   0  0  0  0  0  0  0  0  0  0  0  0
   -1.6271    2.3385    1.1215 H   0  0  0  0  0  0  0  0  0  0  0  0
   -1.9623   -0.1769    1.7504 H   0  0  0  0  0  0  0  0  0  0  0  0
   -0.4755    0.6026    2.2264 H   0  0  0  0  0  0  0  0  0  0  0  0
    3.4977   -0.9072    1.7673 H   0  0  0  0  0  0  0  0  0  0  0  0
    4.1813    0.6374    2.1948 H   0  0  0  0  0  0  0  0  0  0  0  0
   -2.6930    1.7855   -1.2931 H   0  0  0  0  0  0  0  0  0  0  0  0
   -2.4928    0.1317   -0.8129 H   0  0  0  0  0  0  0  0  0  0  0  0
   -0.8415   -1.5655    0.3398 H   0  0  0  0  0  0  0  0  0  0  0  0
   -0.5405    4.0523   -0.2682 H   0  0  0  0  0  0  0  0  0  0  0  0
    0.2084    3.5107   -1.7847 H   0  0  0  0  0  0  0  0  0  0  0  0
   -1.4843    3.2868   -1.5478 H   0  0  0  0  0  0  0  0  0  0  0  0
   -3.8698    0.6240    1.2684 H   0  0  0  0  0  0  0  0  0  0  0  0
   -3.9870    2.3125    0.7478 H   0  0  0  0  0  0  0  0  0  0  0  0
    4.3558   -2.2267   -0.2199 H   0  0  0  0  0  0  0  0  0  0  0  0
    6.4407    1.1440    1.4778 H   0  0  0  0  0  0  0  0  0  0  0  0
    6.4517   -2.9944   -1.2620 H   0  0  0  0  0  0  0  0  0  0  0  0
    8.4986    0.4102    0.4713 H   0  0  0  0  0  0  0  0  0  0  0  0
   -6.2121    1.3294    1.2746 H   0  0  0  0  0  0  0  0  0  0  0  0
   -8.2770    1.4331    0.2371 H   0  0  0  0  0  0  0  0  0  0  0  0
   -7.5524    1.0518   -1.3301 H   0  0  0  0  0  0  0  0  0  0  0  0
   10.2243   -0.9776    0.2295 H   0  0  0  0  0  0  0  0  0  0  0  0
   10.7788   -1.4847   -1.3623 H   0  0  0  0  0  0  0  0  0  0  0  0
    9.8474    0.0051   -1.2542 H   0  0  0  0  0  0  0  0  0  0  0  0
   -7.9442   -0.9041    2.0957 H   0  0  0  0  0  0  0  0  0  0  0  0
   -8.6943   -3.4138    1.6987 H   0  0  0  0  0  0  0  0  0  0  0  0
   -8.9603   -3.9281   -0.8697 H   0  0  0  0  0  0  0  0  0  0  0  0
  1 28  1  0  0  0  0
  1 32  1  0  0  0  0
  2 14  2  0  0  0  0
  3 21  2  0  0  0  0
  4 26  1  0  0  0  0
  4 29  1  0  0  0  0
  5 10  1  0  0  0  0
  5 12  1  0  0  0  0
  5 16  1  0  0  0  0
  6  9  1  0  0  0  0
  6 13  1  0  0  0  0
  6 18  1  0  0  0  0
  7 14  1  0  0  0  0
  7 15  1  0  0  0  0
  7 46  1  0  0  0  0
  8 21  1  0  0  0  0
  8 27  1  0  0  0  0
  8 56  1  0  0  0  0
  9 10  1  0  0  0  0
  9 11  1  0  0  0  0
  9 33  1  0  0  0  0
 10 14  1  0  0  0  0
 10 34  1  0  0  0  0
 11 12  1  0  0  0  0
 11 35  1  0  0  0  0
 11 36  1  0  0  0  0
 12 37  1  0  0  0  0
 12 38  1  0  0  0  0
 13 15  1  0  0  0  0
 13 17  1  0  0  0  0
 13 39  1  0  0  0  0
 15 40  1  0  0  0  0
 15 41  1  0  0  0  0
 16 20  1  0  0  0  0
 16 42  1  0  0  0  0
 16 43  1  0  0  0  0
 17 19  1  0  0  0  0
 17 44  1  0  0  0  0
 17 45  1  0  0  0  0
 18 47  1  0  0  0  0
 18 48  1  0  0  0  0
 18 49  1  0  0  0  0
 19 21  1  0  0  0  0
 19 50  1  0  0  0  0
 19 51  1  0  0  0  0
 20 22  2  0  0  0  0
 20 23  1  0  0  0  0
 22 24  1  0  0  0  0
 22 52  1  0  0  0  0
 23 25  2  0  0  0  0
 23 53  1  0  0  0  0
 24 26  2  0  0  0  0
 24 54  1  0  0  0  0
 25 26  1  0  0  0  0
 25 55  1  0  0  0  0
 27 28  1  0  0  0  0
 27 57  1  0  0  0  0
 27 58  1  0  0  0  0
 28 30  2  0  0  0  0
 29 59  1  0  0  0  0
 29 60  1  0  0  0  0
 29 61  1  0  0  0  0
 30 31  1  0  0  0  0
 30 62  1  0  0  0  0
 31 32  2  0  0  0  0
 31 63  1  0  0  0  0
 32 64  1  0  0  0  0
M  END
> <PUBCHEM_COMPOUND_CID>
45361016

> <PUBCHEM_CONFORMER_RMSD>
1.2

> <PUBCHEM_CONFORMER_DIVERSEORDER>
2
138
127
27
48
37
34
100
59
47
143
144
20
71
87
61
82
3
94
114
134
56
44
110
19
41
76
91
74
123
25
78
136
85
135
115
77
60
9
120
129
117
119
147
109
43
125
92
31
101
111
108
53
133
148
132
113
116
84
124
72
130
39
98
32
13
15
75
149
14
96
145
70
18
36
22
107
24
118
42
89
128
137
97
102
99
64
33
46
93
49
142
141
55
35
122
30
79
140
21
58
90
67
112
66
146
104
65
11
121
63
4
8
23
28
16
45
54
81
26
105
68
139
62
38
106
10
88
52
12
17
126
80
131
50
57
73
29
5
95
1
40
83
86
6
7
51
103
69

> <PUBCHEM_MMFF94_PARTIAL_CHARGES>
39
1 -0.08
10 0.33
12 0.27
13 0.27
14 0.57
15 0.3
16 0.41
18 0.27
19 0.06
2 -0.57
20 -0.14
21 0.57
22 -0.15
23 -0.15
24 -0.15
25 -0.15
26 0.08
27 0.48
28 -0.14
29 0.28
3 -0.57
30 -0.15
31 -0.15
32 -0.11
4 -0.36
46 0.37
5 -0.81
52 0.15
53 0.15
54 0.15
55 0.15
56 0.37
6 -0.81
62 0.15
63 0.15
64 0.15
7 -0.73
8 -0.73
9 0.27

> <PUBCHEM_EFFECTIVE_ROTOR_COUNT>
10.4

> <PUBCHEM_PHARMACOPHORE_FEATURES>
11
1 2 acceptor
1 3 acceptor
1 4 acceptor
1 5 cation
1 6 cation
1 7 donor
1 8 donor
5 1 28 30 31 32 rings
5 5 9 10 11 12 rings
6 20 22 23 24 25 26 rings
7 6 7 9 10 13 14 15 rings

> <PUBCHEM_HEAVY_ATOM_COUNT>
32

> <PUBCHEM_ATOM_DEF_STEREO_COUNT>
3

> <PUBCHEM_ATOM_UDEF_STEREO_COUNT>
0

> <PUBCHEM_BOND_DEF_STEREO_COUNT>
0

> <PUBCHEM_BOND_UDEF_STEREO_COUNT>
0

> <PUBCHEM_ISOTOPIC_ATOM_COUNT>
0

> <PUBCHEM_COMPONENT_COUNT>
1

> <PUBCHEM_CACTVS_TAUTO_COUNT>
6

> <PUBCHEM_CONFORMER_ID>
02B4277800000002

> <PUBCHEM_MMFF94_ENERGY>
84.219

> <PUBCHEM_FEATURE_SELFOVERLAP>
55.858

> <PUBCHEM_SHAPE_FINGERPRINT>
10076449 9 18186523185272052252
11135609 99 18342739658800698519
11386260 185 16950567730687747580
11456790 92 15195566814179603491
11607047 74 18122341538953357164
11621639 148 18340196493075712080
11963148 33 18261663797288384179
12592606 108 18411138038916748771
12645989 146 18186519930404305741
13668630 136 18408881832962723993
13811026 1 18334856138384826968
13947947 19 18411421731130455630
14202775 3 18200599091073309318
15350500 55 9583524209438402683
15461852 350 17240199937589800875
16991971 28 18334576854052602389
1818759 1 18131354102763662366
20105231 36 18273214188154297758
2026 5 18410293584339415267
21150785 3 16515689918203396088
21267235 1 18411418401639776905
21403212 168 9079110060335921764
21585481 151 18341615906503993675
21781051 124 18341904020936018591
21781055 127 11959734915084685160
21792965 169 18340766069767584519
23569917 315 18342464746023066519
23569943 247 17907300953479416666
23576562 1 16733561531533708199
2747138 104 18341606014894020921
335352 9 18260832596667135184
437795 83 13190326956313122471
4461854 278 17988927799256807143
45377200 153 18413388760852905603
484989 97 17968664925321800403
54039377 194 18413671322983076719
5937810 71 12252170846188500815
636775 72 9727635012680326987
636775 8 18410015420375547983
9962374 69 18410570712998554644
999808 66 18343862234888260919

> <PUBCHEM_SHAPE_MULTIPOLES>
624.86
32.57
2.99
1.17
13.39
0.22
0.04
-30.14
5.41
2.27
0.72
0.55
-0.15
1.39

> <PUBCHEM_SHAPE_SELFOVERLAP>
1303.335

> <PUBCHEM_SHAPE_VOLUME>
356.2

> <PUBCHEM_COORDINATE_TYPE>
2
5
10

$$$$
