11867215
  -OEChem-12032416113D

 54 57  0     1  0  0  0  0  0999 V2000
   -3.4837   -1.0985    0.2644 S   0  0  0  0  0  0  0  0  0  0  0  0
    2.7674   -4.8384    1.0471 F   0  0  0  0  0  0  0  0  0  0  0  0
   -2.3689    1.7567   -0.4458 O   0  0  0  0  0  0  0  0  0  0  0  0
    1.9014   -0.0056   -2.7925 O   0  0  0  0  0  0  0  0  0  0  0  0
   -2.5346   -0.9151   -0.8170 O   0  0  0  0  0  0  0  0  0  0  0  0
   -3.7950   -2.4201    0.7732 O   0  0  0  0  0  0  0  0  0  0  0  0
    2.5768    1.2152   -0.9140 N   0  0  0  0  0  0  0  0  0  0  0  0
   -0.1985    2.0121    0.3988 N   0  0  0  0  0  0  0  0  0  0  0  0
   -3.0788   -0.0733    1.5653 N   0  0  0  0  0  0  0  0  0  0  0  0
    1.5714    3.4841   -0.7223 C   0  0  1  0  0  0  0  0  0  0  0  0
    2.1405    2.2217    1.3139 C   0  0  2  0  0  0  0  0  0  0  0  0
    2.1500    3.6131    0.6828 C   0  0  0  0  0  0  0  0  0  0  0  0
    2.4195    2.5151   -1.5659 C   0  0  0  0  0  0  0  0  0  0  0  0
    0.1104    3.0296   -0.6149 C   0  0  0  0  0  0  0  0  0  0  0  0
    3.0298    1.2730    0.4853 C   0  0  0  0  0  0  0  0  0  0  0  0
    0.7310    1.6651    1.3889 C   0  0  0  0  0  0  0  0  0  0  0  0
    0.3910    0.8162    2.3762 C   0  0  0  0  0  0  0  0  0  0  0  0
   -1.5050    1.4802    0.3855 C   0  0  0  0  0  0  0  0  0  0  0  0
    2.2802    0.0492   -1.6238 C   0  0  0  0  0  0  0  0  0  0  0  0
   -1.8123    0.5316    1.4853 C   0  0  0  0  0  0  0  0  0  0  0  0
   -0.9200    0.2284    2.4288 C   0  0  0  0  0  0  0  0  0  0  0  0
    2.4078   -1.2328   -0.9232 C   0  0  0  0  0  0  0  0  0  0  0  0
    1.3158   -1.7604   -0.2392 C   0  0  0  0  0  0  0  0  0  0  0  0
    3.6209   -1.9166   -0.9455 C   0  0  0  0  0  0  0  0  0  0  0  0
   -5.0103   -0.3464   -0.2427 C   0  0  0  0  0  0  0  0  0  0  0  0
   -5.6204   -1.0770   -1.4274 C   0  0  0  0  0  0  0  0  0  0  0  0
    1.4373   -2.9797    0.4271 C   0  0  0  0  0  0  0  0  0  0  0  0
    3.7425   -3.1361   -0.2794 C   0  0  0  0  0  0  0  0  0  0  0  0
    2.6507   -3.6678    0.4070 C   0  0  0  0  0  0  0  0  0  0  0  0
   -6.9168   -0.4235   -1.8759 C   0  0  0  0  0  0  0  0  0  0  0  0
    1.5924    4.4617   -1.2196 H   0  0  0  0  0  0  0  0  0  0  0  0
    2.5632    2.3004    2.3238 H   0  0  0  0  0  0  0  0  0  0  0  0
    1.5580    4.3165    1.2817 H   0  0  0  0  0  0  0  0  0  0  0  0
    3.1724    4.0080    0.6408 H   0  0  0  0  0  0  0  0  0  0  0  0
    1.9815    2.3984   -2.5629 H   0  0  0  0  0  0  0  0  0  0  0  0
    3.4277    2.9249   -1.7029 H   0  0  0  0  0  0  0  0  0  0  0  0
   -0.5097    3.8993   -0.3576 H   0  0  0  0  0  0  0  0  0  0  0  0
   -0.2553    2.6767   -1.5874 H   0  0  0  0  0  0  0  0  0  0  0  0
    4.0617    1.6450    0.4683 H   0  0  0  0  0  0  0  0  0  0  0  0
    3.0593    0.2821    0.9447 H   0  0  0  0  0  0  0  0  0  0  0  0
    1.1002    0.5240    3.1436 H   0  0  0  0  0  0  0  0  0  0  0  0
   -1.1316   -0.4621    3.2382 H   0  0  0  0  0  0  0  0  0  0  0  0
   -3.3147   -0.4528    2.4923 H   0  0  0  0  0  0  0  0  0  0  0  0
    0.3645   -1.2372   -0.2255 H   0  0  0  0  0  0  0  0  0  0  0  0
    4.4775   -1.5105   -1.4769 H   0  0  0  0  0  0  0  0  0  0  0  0
   -4.8025    0.6958   -0.5012 H   0  0  0  0  0  0  0  0  0  0  0  0
   -5.6893   -0.3731    0.6159 H   0  0  0  0  0  0  0  0  0  0  0  0
   -4.9159   -1.0891   -2.2672 H   0  0  0  0  0  0  0  0  0  0  0  0
   -5.8158   -2.1234   -1.1655 H   0  0  0  0  0  0  0  0  0  0  0  0
    0.5867   -3.3940    0.9602 H   0  0  0  0  0  0  0  0  0  0  0  0
    4.6870   -3.6717   -0.2945 H   0  0  0  0  0  0  0  0  0  0  0  0
   -7.3394   -0.9648   -2.7282 H   0  0  0  0  0  0  0  0  0  0  0  0
   -7.6575   -0.4276   -1.0698 H   0  0  0  0  0  0  0  0  0  0  0  0
   -6.7478    0.6137   -2.1824 H   0  0  0  0  0  0  0  0  0  0  0  0
  1  5  2  0  0  0  0
  1  6  2  0  0  0  0
  1  9  1  0  0  0  0
  1 25  1  0  0  0  0
  2 29  1  0  0  0  0
  3 18  2  0  0  0  0
  4 19  2  0  0  0  0
  7 13  1  0  0  0  0
  7 15  1  0  0  0  0
  7 19  1  0  0  0  0
  8 14  1  0  0  0  0
  8 16  1  0  0  0  0
  8 18  1  0  0  0  0
  9 20  1  0  0  0  0
  9 43  1  0  0  0  0
 10 12  1  0  0  0  0
 10 13  1  0  0  0  0
 10 14  1  0  0  0  0
 10 31  1  0  0  0  0
 11 12  1  0  0  0  0
 11 15  1  0  0  0  0
 11 16  1  0  0  0  0
 11 32  1  0  0  0  0
 12 33  1  0  0  0  0
 12 34  1  0  0  0  0
 13 35  1  0  0  0  0
 13 36  1  0  0  0  0
 14 37  1  0  0  0  0
 14 38  1  0  0  0  0
 15 39  1  0  0  0  0
 15 40  1  0  0  0  0
 16 17  2  0  0  0  0
 17 21  1  0  0  0  0
 17 41  1  0  0  0  0
 18 20  1  0  0  0  0
 19 22  1  0  0  0  0
 20 21  2  0  0  0  0
 21 42  1  0  0  0  0
 22 23  2  0  0  0  0
 22 24  1  0  0  0  0
 23 27  1  0  0  0  0
 23 44  1  0  0  0  0
 24 28  2  0  0  0  0
 24 45  1  0  0  0  0
 25 26  1  0  0  0  0
 25 46  1  0  0  0  0
 25 47  1  0  0  0  0
 26 30  1  0  0  0  0
 26 48  1  0  0  0  0
 26 49  1  0  0  0  0
 27 29  2  0  0  0  0
 27 50  1  0  0  0  0
 28 29  1  0  0  0  0
 28 51  1  0  0  0  0
 30 52  1  0  0  0  0
 30 53  1  0  0  0  0
 30 54  1  0  0  0  0
M  END
> <PUBCHEM_COMPOUND_CID>
11867215

> <PUBCHEM_CONFORMER_RMSD>
0.8

> <PUBCHEM_CONFORMER_DIVERSEORDER>
1
41
50
14
66
15
59
8
35
34
33
75
53
28
45
42
63
27
80
61
77
60
46
51
78
22
31
65
20
47
68
72
37
17
83
40
21
52
57
6
48
38
73
25
79
23
24
10
62
44
7
69
49
76
58
74
39
71
64
19
29
9
3
30
32
55
4
70
12
16
67
43
18
56
36
26
5
13
11
54
81
82
2

> <PUBCHEM_MMFF94_PARTIAL_CHARGES>
33
1 1.33
11 0.14
13 0.3
14 0.3
15 0.3
16 -0.03
17 -0.15
18 0.62
19 0.54
2 -0.19
20 0.21
21 -0.15
22 0.09
23 -0.15
24 -0.15
25 0.11
27 -0.15
28 -0.15
29 0.19
3 -0.57
4 -0.57
41 0.15
42 0.15
43 0.42
44 0.15
45 0.15
5 -0.65
50 0.15
51 0.15
6 -0.65
7 -0.66
8 -0.47
9 -0.75

> <PUBCHEM_EFFECTIVE_ROTOR_COUNT>
7

> <PUBCHEM_PHARMACOPHORE_FEATURES>
10
1 3 acceptor
1 30 hydrophobe
1 4 acceptor
1 5 acceptor
1 6 acceptor
1 9 donor
6 22 23 24 27 28 29 rings
6 7 10 11 12 13 15 rings
6 8 10 11 12 14 16 rings
6 8 16 17 18 20 21 rings

> <PUBCHEM_HEAVY_ATOM_COUNT>
30

> <PUBCHEM_ATOM_DEF_STEREO_COUNT>
2

> <PUBCHEM_ATOM_UDEF_STEREO_COUNT>
0

> <PUBCHEM_BOND_DEF_STEREO_COUNT>
0

> <PUBCHEM_BOND_UDEF_STEREO_COUNT>
0

> <PUBCHEM_ISOTOPIC_ATOM_COUNT>
0

> <PUBCHEM_COMPONENT_COUNT>
1

> <PUBCHEM_CACTVS_TAUTO_COUNT>
1

> <PUBCHEM_CONFORMER_ID>
00B5144F00000001

> <PUBCHEM_MMFF94_ENERGY>
71.873

> <PUBCHEM_FEATURE_SELFOVERLAP>
52.351

> <PUBCHEM_SHAPE_FINGERPRINT>
10675989 125 18128255778097939993
11135609 149 18121184672742656903
11552529 35 17476079021753283002
11578080 2 18057880251998123880
11720765 8 18265597828301055293
12156800 1 16665111225067668218
13004483 165 17686065989786763674
14068700 675 18129091234598144282
14508693 111 15696001938602600341
15183329 4 17060341860389507797
15324115 91 18338232777665339407
15664445 248 18198616830010334001
17093844 170 18267298922881010257
17138139 8 17056107781816150709
19026451 147 18059852878758006151
20600515 1 17484799316469484296
20626108 58 18059855000386875977
20721686 124 18190445242032323762
20775438 99 18192969708425850047
20775530 9 18194697968240811818
21452121 99 17475805719856444768
23419403 2 17268871772994086808
23559900 14 18335416889837511151
23728640 28 16966622464806147264
238 59 18118706510735102448
24941158 1 18119778470105587701
25222932 49 16197030734463665927
4280585 95 18265040354162171194
460360 51 18409453549250488457
463206 1 18263945249223497426
513532 50 17676474069431562839
5951187 136 16588021350919183749
59682541 52 18338780296529104599

> <PUBCHEM_SHAPE_MULTIPOLES>
575.54
9.19
4.99
2.1
19.92
2.44
0.08
5.55
-4.97
-6.97
0.55
0.33
-0.43
-0.48

> <PUBCHEM_SHAPE_SELFOVERLAP>
1229.444

> <PUBCHEM_SHAPE_VOLUME>
321.6

> <PUBCHEM_COORDINATE_TYPE>
2
5
10

$$$$
