26743240
  -OEChem-12032416193D

 65 68  0     1  0  0  0  0  0999 V2000
    0.5795    3.1967    1.7490 O   0  0  0  0  0  0  0  0  0  0  0  0
    0.4497   -1.2311   -1.7079 O   0  0  0  0  0  0  0  0  0  0  0  0
    5.7427   -0.3589   -0.8228 N   0  0  0  0  0  0  0  0  0  0  0  0
    1.9054    2.7925    1.8472 N   0  0  0  0  0  0  0  0  0  0  0  0
    0.4662   -3.1233   -0.3587 N   0  0  0  0  0  0  0  0  0  0  0  0
    3.7587    0.4997    0.3989 C   0  0  2  0  0  0  0  0  0  0  0  0
    2.8049   -0.1964   -0.6010 C   0  0  1  0  0  0  0  0  0  0  0  0
    3.5387   -0.3976   -1.9375 C   0  0  0  0  0  0  0  0  0  0  0  0
    5.1124   -0.2247    0.4909 C   0  0  0  0  0  0  0  0  0  0  0  0
   -2.1571    2.2585    0.0164 C   0  0  0  0  0  0  0  0  0  0  0  0
    3.1466    0.6729    1.7896 C   0  0  0  0  0  0  0  0  0  0  0  0
    4.8917   -1.0860   -1.7622 C   0  0  0  0  0  0  0  0  0  0  0  0
    2.2260   -1.5218   -0.0916 C   0  0  0  0  0  0  0  0  0  0  0  0
   -3.6738    2.4854   -0.0411 C   0  0  0  0  0  0  0  0  0  0  0  0
   -1.4204    3.2595   -0.8837 C   0  0  0  0  0  0  0  0  0  0  0  0
   -4.1953    2.4486   -1.4757 C   0  0  0  0  0  0  0  0  0  0  0  0
   -1.9458    3.2217   -2.3170 C   0  0  0  0  0  0  0  0  0  0  0  0
   -1.6516    2.3530    1.4548 C   0  0  0  0  0  0  0  0  0  0  0  0
   -3.4548    3.4386   -2.3694 C   0  0  0  0  0  0  0  0  0  0  0  0
    1.8707    1.4620    1.7310 C   0  0  0  0  0  0  0  0  0  0  0  0
   -0.2101    2.1057    1.5779 C   0  0  0  0  0  0  0  0  0  0  0  0
    0.5633    0.9752    1.5595 C   0  0  0  0  0  0  0  0  0  0  0  0
    0.9595   -1.9126   -0.8227 C   0  0  0  0  0  0  0  0  0  0  0  0
   -0.7349   -3.7368   -0.8774 C   0  0  0  0  0  0  0  0  0  0  0  0
   -1.9585   -3.3013   -0.1243 C   0  0  0  0  0  0  0  0  0  0  0  0
   -2.3849   -4.0232    0.9904 C   0  0  0  0  0  0  0  0  0  0  0  0
   -2.6689   -2.1749   -0.5392 C   0  0  0  0  0  0  0  0  0  0  0  0
   -3.5218   -3.6188    1.6903 C   0  0  0  0  0  0  0  0  0  0  0  0
   -3.8057   -1.7704    0.1605 C   0  0  0  0  0  0  0  0  0  0  0  0
   -4.2321   -2.4924    1.2754 C   0  0  0  0  0  0  0  0  0  0  0  0
    3.9606    1.5054   -0.0021 H   0  0  0  0  0  0  0  0  0  0  0  0
    1.9779    0.4939   -0.8108 H   0  0  0  0  0  0  0  0  0  0  0  0
    3.6996    0.5847   -2.4022 H   0  0  0  0  0  0  0  0  0  0  0  0
    2.9275   -0.9715   -2.6428 H   0  0  0  0  0  0  0  0  0  0  0  0
    5.7880    0.3471    1.1375 H   0  0  0  0  0  0  0  0  0  0  0  0
    4.9940   -1.2130    0.9522 H   0  0  0  0  0  0  0  0  0  0  0  0
   -1.9502    1.2474   -0.3629 H   0  0  0  0  0  0  0  0  0  0  0  0
    3.8592    1.2138    2.4278 H   0  0  0  0  0  0  0  0  0  0  0  0
    2.9816   -0.2831    2.2974 H   0  0  0  0  0  0  0  0  0  0  0  0
    4.7705   -2.1259   -1.4396 H   0  0  0  0  0  0  0  0  0  0  0  0
    5.3973   -1.1195   -2.7338 H   0  0  0  0  0  0  0  0  0  0  0  0
    1.9586   -1.4842    0.9661 H   0  0  0  0  0  0  0  0  0  0  0  0
    2.9477   -2.3395   -0.1927 H   0  0  0  0  0  0  0  0  0  0  0  0
   -3.9238    3.4554    0.4075 H   0  0  0  0  0  0  0  0  0  0  0  0
   -4.1898    1.7201    0.5507 H   0  0  0  0  0  0  0  0  0  0  0  0
   -0.3461    3.0455   -0.9137 H   0  0  0  0  0  0  0  0  0  0  0  0
   -1.5337    4.2760   -0.4853 H   0  0  0  0  0  0  0  0  0  0  0  0
    6.6307   -0.8497   -0.7222 H   0  0  0  0  0  0  0  0  0  0  0  0
   -5.2674    2.6750   -1.4838 H   0  0  0  0  0  0  0  0  0  0  0  0
   -4.0797    1.4350   -1.8794 H   0  0  0  0  0  0  0  0  0  0  0  0
   -1.7002    2.2530   -2.7698 H   0  0  0  0  0  0  0  0  0  0  0  0
   -1.4425    3.9901   -2.9144 H   0  0  0  0  0  0  0  0  0  0  0  0
   -2.1877    1.6229    2.0750 H   0  0  0  0  0  0  0  0  0  0  0  0
   -1.8952    3.3386    1.8724 H   0  0  0  0  0  0  0  0  0  0  0  0
   -3.8065    3.3377   -3.4023 H   0  0  0  0  0  0  0  0  0  0  0  0
   -3.6874    4.4622   -2.0507 H   0  0  0  0  0  0  0  0  0  0  0  0
    0.2147   -0.0401    1.4521 H   0  0  0  0  0  0  0  0  0  0  0  0
    0.9532   -3.6026    0.3932 H   0  0  0  0  0  0  0  0  0  0  0  0
   -0.6065   -4.8229   -0.8080 H   0  0  0  0  0  0  0  0  0  0  0  0
   -0.8366   -3.4958   -1.9422 H   0  0  0  0  0  0  0  0  0  0  0  0
   -1.8390   -4.9014    1.3246 H   0  0  0  0  0  0  0  0  0  0  0  0
   -2.3500   -1.6033   -1.4065 H   0  0  0  0  0  0  0  0  0  0  0  0
   -3.8535   -4.1805    2.5586 H   0  0  0  0  0  0  0  0  0  0  0  0
   -4.3591   -0.8937   -0.1629 H   0  0  0  0  0  0  0  0  0  0  0  0
   -5.1171   -2.1771    1.8202 H   0  0  0  0  0  0  0  0  0  0  0  0
  1  4  1  0  0  0  0
  1 21  1  0  0  0  0
  2 23  2  0  0  0  0
  3  9  1  0  0  0  0
  3 12  1  0  0  0  0
  3 48  1  0  0  0  0
  4 20  2  0  0  0  0
  5 23  1  0  0  0  0
  5 24  1  0  0  0  0
  5 58  1  0  0  0  0
  6  7  1  0  0  0  0
  6  9  1  0  0  0  0
  6 11  1  0  0  0  0
  6 31  1  0  0  0  0
  7  8  1  0  0  0  0
  7 13  1  0  0  0  0
  7 32  1  0  0  0  0
  8 12  1  0  0  0  0
  8 33  1  0  0  0  0
  8 34  1  0  0  0  0
  9 35  1  0  0  0  0
  9 36  1  0  0  0  0
 10 14  1  0  0  0  0
 10 15  1  0  0  0  0
 10 18  1  0  0  0  0
 10 37  1  0  0  0  0
 11 20  1  0  0  0  0
 11 38  1  0  0  0  0
 11 39  1  0  0  0  0
 12 40  1  0  0  0  0
 12 41  1  0  0  0  0
 13 23  1  0  0  0  0
 13 42  1  0  0  0  0
 13 43  1  0  0  0  0
 14 16  1  0  0  0  0
 14 44  1  0  0  0  0
 14 45  1  0  0  0  0
 15 17  1  0  0  0  0
 15 46  1  0  0  0  0
 15 47  1  0  0  0  0
 16 19  1  0  0  0  0
 16 49  1  0  0  0  0
 16 50  1  0  0  0  0
 17 19  1  0  0  0  0
 17 51  1  0  0  0  0
 17 52  1  0  0  0  0
 18 21  1  0  0  0  0
 18 53  1  0  0  0  0
 18 54  1  0  0  0  0
 19 55  1  0  0  0  0
 19 56  1  0  0  0  0
 20 22  1  0  0  0  0
 21 22  2  0  0  0  0
 22 57  1  0  0  0  0
 24 25  1  0  0  0  0
 24 59  1  0  0  0  0
 24 60  1  0  0  0  0
 25 26  2  0  0  0  0
 25 27  1  0  0  0  0
 26 28  1  0  0  0  0
 26 61  1  0  0  0  0
 27 29  2  0  0  0  0
 27 62  1  0  0  0  0
 28 30  2  0  0  0  0
 28 63  1  0  0  0  0
 29 30  1  0  0  0  0
 29 64  1  0  0  0  0
 30 65  1  0  0  0  0
M  END
> <PUBCHEM_COMPOUND_CID>
26743240

> <PUBCHEM_CONFORMER_RMSD>
1.4

> <PUBCHEM_CONFORMER_DIVERSEORDER>
1
5
62
59
14
58
63
68
72
13
12
26
76
30
56
54
47
35
52
43
6
27
2
65
74
9
20
53
60
70
75
39
61
73
69
28
57
11
66
44
71
3
19
8
36
16
42
41
33
50
23
25
37
10
15
55
21
4
34
22
46
51
64
29
40
49
77
45
67
24
31
48
38
18
7
32
17

> <PUBCHEM_MMFF94_PARTIAL_CHARGES>
29
1 -0.02
11 0.18
12 0.27
13 0.06
18 0.18
2 -0.57
20 0.11
21 -0.04
22 -0.15
23 0.57
24 0.44
25 -0.14
26 -0.15
27 -0.15
28 -0.15
29 -0.15
3 -0.9
30 -0.15
4 -0.41
48 0.36
5 -0.73
57 0.15
58 0.37
61 0.15
62 0.15
63 0.15
64 0.15
65 0.15
9 0.27

> <PUBCHEM_EFFECTIVE_ROTOR_COUNT>
11.4

> <PUBCHEM_PHARMACOPHORE_FEATURES>
9
1 2 acceptor
1 3 cation
1 3 donor
1 4 acceptor
1 5 donor
5 1 4 20 21 22 rings
6 10 14 15 16 17 19 rings
6 25 26 27 28 29 30 rings
6 3 6 7 8 9 12 rings

> <PUBCHEM_HEAVY_ATOM_COUNT>
30

> <PUBCHEM_ATOM_DEF_STEREO_COUNT>
2

> <PUBCHEM_ATOM_UDEF_STEREO_COUNT>
0

> <PUBCHEM_BOND_DEF_STEREO_COUNT>
0

> <PUBCHEM_BOND_UDEF_STEREO_COUNT>
0

> <PUBCHEM_ISOTOPIC_ATOM_COUNT>
0

> <PUBCHEM_COMPONENT_COUNT>
1

> <PUBCHEM_CACTVS_TAUTO_COUNT>
2

> <PUBCHEM_CONFORMER_ID>
019811C800000001

> <PUBCHEM_MMFF94_ENERGY>
37.5646

> <PUBCHEM_FEATURE_SELFOVERLAP>
45.672

> <PUBCHEM_SHAPE_FINGERPRINT>
10688039 33 18191872429426174114
108634 29 18131351856827959198
10940486 97 15386954796312754208
11421498 54 17968380160131680730
11513181 2 17056416727193014831
12422481 6 17698422662490314552
13402501 40 18343867723376352307
14790565 3 16760847244529184312
150020 26 17477214189951501355
16067689 391 16984364304807661750
16067689 68 17533467133912058850
19319366 153 16976486217752395792
20739085 24 17041180914831307640
20764821 26 18125706908243784339
22182313 1 17988353858497002800
25223398 141 18334577936611214420
3052486 1 18408321086332566354
4058900 60 17834965165524177873
4409770 3 18341336617154375518
469060 322 18117023089871970595
508706 21 18411130355573911663
57091435 65 17398394612239731109
6287921 2 17187010228892862475
86090 222 18196624394939916197

> <PUBCHEM_SHAPE_MULTIPOLES>
590.7
9.33
6.22
2.32
7.74
1.81
0.14
1.11
2.15
-9.3
0.23
0.2
-1.63
4.23

> <PUBCHEM_SHAPE_SELFOVERLAP>
1235.685

> <PUBCHEM_SHAPE_VOLUME>
330

> <PUBCHEM_COORDINATE_TYPE>
2
5
10

$$$$
