11884015
  -OEChem-12032416363D

 56 59  0     1  0  0  0  0  0999 V2000
   -1.7226    0.9283    1.0622 O   0  0  0  0  0  0  0  0  0  0  0  0
   -2.6686    3.4188   -0.4564 O   0  0  0  0  0  0  0  0  0  0  0  0
    0.5778    1.9434   -0.1144 O   0  0  0  0  0  0  0  0  0  0  0  0
   -6.4779    0.7866    1.5815 O   0  0  0  0  0  0  0  0  0  0  0  0
    1.2111    0.7209   -1.9404 O   0  0  0  0  0  0  0  0  0  0  0  0
    8.1711   -1.3033    0.4546 O   0  0  0  0  0  0  0  0  0  0  0  0
    7.1827   -0.0127    2.0845 O   0  0  0  0  0  0  0  0  0  0  0  0
   -4.6759    0.4147    0.1696 N   0  0  0  0  0  0  0  0  0  0  0  0
    2.6264    1.0000   -0.0967 N   0  0  0  0  0  0  0  0  0  0  0  0
   -3.0133    2.0248   -0.5975 C   0  0  1  0  0  0  0  0  0  0  0  0
   -1.7476    1.2313   -0.3426 C   0  0  1  0  0  0  0  0  0  0  0  0
   -3.9371    1.6028    0.5212 C   0  0  2  0  0  0  0  0  0  0  0  0
   -0.6650    2.2127   -0.7227 C   0  0  1  0  0  0  0  0  0  0  0  0
   -2.9652    1.3334    1.6570 C   0  0  0  0  0  0  0  0  0  0  0  0
   -1.2509    3.5284   -0.2620 C   0  0  0  0  0  0  0  0  0  0  0  0
   -5.9028    0.1031    0.7386 C   0  0  0  0  0  0  0  0  0  0  0  0
    1.4667    1.1669   -0.8285 C   0  0  0  0  0  0  0  0  0  0  0  0
   -6.5235   -1.1698    0.2897 C   0  0  0  0  0  0  0  0  0  0  0  0
   -7.3990   -1.8542    1.1328 C   0  0  0  0  0  0  0  0  0  0  0  0
   -6.2316   -1.6802   -0.9753 C   0  0  0  0  0  0  0  0  0  0  0  0
    3.7865    0.2774   -0.4570 C   0  0  0  0  0  0  0  0  0  0  0  0
   -7.9822   -3.0492    0.7114 C   0  0  0  0  0  0  0  0  0  0  0  0
   -6.8150   -2.8751   -1.3968 C   0  0  0  0  0  0  0  0  0  0  0  0
   -7.6903   -3.5596   -0.5534 C   0  0  0  0  0  0  0  0  0  0  0  0
    4.8711    0.2171    0.4183 C   0  0  0  0  0  0  0  0  0  0  0  0
    3.8465   -0.3764   -1.6876 C   0  0  0  0  0  0  0  0  0  0  0  0
    6.0153   -0.4974    0.0628 C   0  0  0  0  0  0  0  0  0  0  0  0
    4.9907   -1.0907   -2.0431 C   0  0  0  0  0  0  0  0  0  0  0  0
    6.0751   -1.1511   -1.1680 C   0  0  0  0  0  0  0  0  0  0  0  0
    7.1463   -0.5603    0.9744 C   0  0  0  0  0  0  0  0  0  0  0  0
    9.3451   -1.4409    1.2623 C   0  0  0  0  0  0  0  0  0  0  0  0
   10.3564   -2.2898    0.5216 C   0  0  0  0  0  0  0  0  0  0  0  0
   -3.4203    1.8831   -1.6038 H   0  0  0  0  0  0  0  0  0  0  0  0
   -1.6942    0.2847   -0.8880 H   0  0  0  0  0  0  0  0  0  0  0  0
   -4.6462    2.3874    0.8066 H   0  0  0  0  0  0  0  0  0  0  0  0
   -0.5827    2.2590   -1.8175 H   0  0  0  0  0  0  0  0  0  0  0  0
   -3.3007    0.5602    2.3548 H   0  0  0  0  0  0  0  0  0  0  0  0
   -2.7666    2.2480    2.2266 H   0  0  0  0  0  0  0  0  0  0  0  0
   -0.8665    4.3783   -0.8339 H   0  0  0  0  0  0  0  0  0  0  0  0
   -1.0531    3.7238    0.7979 H   0  0  0  0  0  0  0  0  0  0  0  0
   -4.2138   -0.2521   -0.4398 H   0  0  0  0  0  0  0  0  0  0  0  0
    2.6516    1.4512    0.8145 H   0  0  0  0  0  0  0  0  0  0  0  0
   -7.6358   -1.4752    2.1236 H   0  0  0  0  0  0  0  0  0  0  0  0
   -5.5803   -1.1635   -1.6741 H   0  0  0  0  0  0  0  0  0  0  0  0
   -8.6632   -3.5826    1.3681 H   0  0  0  0  0  0  0  0  0  0  0  0
   -6.5937   -3.2695   -2.3843 H   0  0  0  0  0  0  0  0  0  0  0  0
   -8.1458   -4.4891   -0.8823 H   0  0  0  0  0  0  0  0  0  0  0  0
    4.8167    0.7295    1.3763 H   0  0  0  0  0  0  0  0  0  0  0  0
    3.0474   -0.3744   -2.4159 H   0  0  0  0  0  0  0  0  0  0  0  0
    5.0378   -1.6000   -3.0014 H   0  0  0  0  0  0  0  0  0  0  0  0
    6.9446   -1.7186   -1.4872 H   0  0  0  0  0  0  0  0  0  0  0  0
    9.0798   -1.9213    2.2104 H   0  0  0  0  0  0  0  0  0  0  0  0
    9.7670   -0.4498    1.4621 H   0  0  0  0  0  0  0  0  0  0  0  0
   11.2685   -2.4157    1.1116 H   0  0  0  0  0  0  0  0  0  0  0  0
   10.6161   -1.8303   -0.4378 H   0  0  0  0  0  0  0  0  0  0  0  0
    9.9402   -3.2777    0.2983 H   0  0  0  0  0  0  0  0  0  0  0  0
  1 11  1  0  0  0  0
  1 14  1  0  0  0  0
  2 10  1  0  0  0  0
  2 15  1  0  0  0  0
  3 13  1  0  0  0  0
  3 17  1  0  0  0  0
  4 16  2  0  0  0  0
  5 17  2  0  0  0  0
  6 30  1  0  0  0  0
  6 31  1  0  0  0  0
  7 30  2  0  0  0  0
  8 12  1  0  0  0  0
  8 16  1  0  0  0  0
  8 41  1  0  0  0  0
  9 17  1  0  0  0  0
  9 21  1  0  0  0  0
  9 42  1  0  0  0  0
 10 11  1  0  0  0  0
 10 12  1  0  0  0  0
 10 33  1  0  0  0  0
 11 13  1  0  0  0  0
 11 34  1  0  0  0  0
 12 14  1  0  0  0  0
 12 35  1  0  0  0  0
 13 15  1  0  0  0  0
 13 36  1  0  0  0  0
 14 37  1  0  0  0  0
 14 38  1  0  0  0  0
 15 39  1  0  0  0  0
 15 40  1  0  0  0  0
 16 18  1  0  0  0  0
 18 19  2  0  0  0  0
 18 20  1  0  0  0  0
 19 22  1  0  0  0  0
 19 43  1  0  0  0  0
 20 23  2  0  0  0  0
 20 44  1  0  0  0  0
 21 25  1  0  0  0  0
 21 26  2  0  0  0  0
 22 24  2  0  0  0  0
 22 45  1  0  0  0  0
 23 24  1  0  0  0  0
 23 46  1  0  0  0  0
 24 47  1  0  0  0  0
 25 27  2  0  0  0  0
 25 48  1  0  0  0  0
 26 28  1  0  0  0  0
 26 49  1  0  0  0  0
 27 29  1  0  0  0  0
 27 30  1  0  0  0  0
 28 29  2  0  0  0  0
 28 50  1  0  0  0  0
 29 51  1  0  0  0  0
 31 32  1  0  0  0  0
 31 52  1  0  0  0  0
 31 53  1  0  0  0  0
 32 54  1  0  0  0  0
 32 55  1  0  0  0  0
 32 56  1  0  0  0  0
M  END
> <PUBCHEM_COMPOUND_CID>
11884015

> <PUBCHEM_CONFORMER_RMSD>
1

> <PUBCHEM_CONFORMER_DIVERSEORDER>
2
5
44
32
28
49
13
9
46
16
7
47
19
8
18
45
20
15
42
33
37
17
14
40
38
48
31
6
12
30
29
4
36
22
11
26
35
34
43
10
27
39
25
3
23
41
24
1
21

> <PUBCHEM_MMFF94_PARTIAL_CHARGES>
42
1 -0.56
10 0.28
11 0.28
12 0.3
13 0.28
14 0.28
15 0.28
16 0.54
17 0.78
18 0.09
19 -0.15
2 -0.56
20 -0.15
21 0.12
22 -0.15
23 -0.15
24 -0.15
25 -0.15
26 -0.15
27 0.09
28 -0.15
29 -0.15
3 -0.43
30 0.63
31 0.28
4 -0.57
41 0.37
42 0.37
43 0.15
44 0.15
45 0.15
46 0.15
47 0.15
48 0.15
49 0.15
5 -0.57
50 0.15
51 0.15
6 -0.43
7 -0.57
8 -0.73
9 -0.55

> <PUBCHEM_EFFECTIVE_ROTOR_COUNT>
11.2

> <PUBCHEM_PHARMACOPHORE_FEATURES>
11
1 1 acceptor
1 2 acceptor
1 4 acceptor
1 5 acceptor
1 7 acceptor
1 8 donor
1 9 donor
5 1 10 11 12 14 rings
5 2 10 11 13 15 rings
6 18 19 20 22 23 24 rings
6 21 25 26 27 28 29 rings

> <PUBCHEM_HEAVY_ATOM_COUNT>
32

> <PUBCHEM_ATOM_DEF_STEREO_COUNT>
4

> <PUBCHEM_ATOM_UDEF_STEREO_COUNT>
0

> <PUBCHEM_BOND_DEF_STEREO_COUNT>
0

> <PUBCHEM_BOND_UDEF_STEREO_COUNT>
0

> <PUBCHEM_ISOTOPIC_ATOM_COUNT>
0

> <PUBCHEM_COMPONENT_COUNT>
1

> <PUBCHEM_CACTVS_TAUTO_COUNT>
4

> <PUBCHEM_CONFORMER_ID>
00B555EF00000002

> <PUBCHEM_MMFF94_ENERGY>
92.8578

> <PUBCHEM_FEATURE_SELFOVERLAP>
56.54

> <PUBCHEM_SHAPE_FINGERPRINT>
10 15 14979959151162204793
10049733 244 8790600455986988405
10100884 174 18334856143144960082
10190206 1 12757140256393048327
10258705 36 18054514613284728502
10533779 47 16917068799590034942
11386260 185 14345803768723652646
11963148 33 18410014299495508007
12120059 9 18201996591367288463
12218070 45 16772942753076570263
12522641 68 17682666330495629437
12838863 1 18259702315356249946
13782708 43 18343024389083141913
13974486 7 18265889336586100715
14068700 675 18186805781203903869
14359421 15 17967526913850705323
14918687 75 18333449851394394422
15183329 4 14490467591236235925
15461852 350 18259985947091630660
15519825 34 18342736342584974258
15803439 3 14345791686822380689
16992779 147 15983961821940535712
19303781 99 18266739259442903143
20028762 73 18412833494537532407
2026 5 18113616755346531074
20609170 45 9006245451161420936
21095123 293 11887955462675854154
21424621 283 8935008053609889885
21987483 16 18266457805017310658
22864921 47 18260819376520986730
23389318 12 17895198844125128228
23522609 53 17976298791499456645
23528940 14 18335414639834318002
23569914 152 13047871995649096680
23569943 247 18194970863187019619
25025965 108 18115015321389388706
2747138 104 17632585916095209860
3383291 50 18340208591692908675
3525247 18 11021067450213257315
397830 11 17632859737044508257
3986486 107 12829482653696305598
406291 66 18335983164153836703
4173938 188 18341606028549024026
44389302 135 18264483993807225970
44802255 64 13118005504921704761
4516262 110 9727091815513011481
50009960 94 17914610803734819999
5718773 13 18408604794692316357
57634706 229 10015585034646581685
57676310 51 18187079508039163747
5874358 3 18187078481382658027
636775 72 8502074215632032079
6712543 237 16128389194468346983
9689198 14 10735886092480629157
9953998 17 17632298952445460425
9962374 69 18260271854675115868
9980921 7 11600010926041798147

> <PUBCHEM_SHAPE_MULTIPOLES>
607.5
31.83
3.69
1.63
34.83
0.09
-0.1
-37.8
10.32
-7.64
-0.55
1.12
-0.34
-1.57

> <PUBCHEM_SHAPE_SELFOVERLAP>
1309.078

> <PUBCHEM_SHAPE_VOLUME>
333.3

> <PUBCHEM_COORDINATE_TYPE>
2
5
10

$$$$
