26743698
  -OEChem-12032416353D

 57 61  0     1  0  0  0  0  0999 V2000
    6.9501   -0.0201    1.2534 F   0  0  0  0  0  0  0  0  0  0  0  0
    5.4368   -0.5110   -0.2450 F   0  0  0  0  0  0  0  0  0  0  0  0
    6.7235    1.2682   -0.4973 F   0  0  0  0  0  0  0  0  0  0  0  0
   -6.3151    2.5542    1.4337 O   0  0  0  0  0  0  0  0  0  0  0  0
   -1.8144    2.0220   -2.0224 O   0  0  0  0  0  0  0  0  0  0  0  0
    1.1610   -3.2106   -1.5258 O   0  0  0  0  0  0  0  0  0  0  0  0
    5.1155    1.2889    1.1293 O   0  0  0  0  0  0  0  0  0  0  0  0
   -3.9508    0.1292    0.2934 N   0  0  1  0  0  0  0  0  0  0  0  0
   -1.1863    1.2103   -0.0315 N   0  0  0  0  0  0  0  0  0  0  0  0
   -0.4186    2.1311   -1.9801 N   0  0  0  0  0  0  0  0  0  0  0  0
   -3.6681    1.2451   -0.6320 C   0  0  1  0  0  0  0  0  0  0  0  0
   -4.3753    2.4627   -0.0084 C   0  0  0  0  0  0  0  0  0  0  0  0
   -5.0649    1.9225    1.2383 C   0  0  2  0  0  0  0  0  0  0  0  0
   -5.2216    0.4427    0.9440 C   0  0  0  0  0  0  0  0  0  0  0  0
   -3.9778   -1.1703   -0.3651 C   0  0  0  0  0  0  0  0  0  0  0  0
   -2.1849    1.4710   -0.8369 C   0  0  0  0  0  0  0  0  0  0  0  0
   -2.6018   -1.7091   -0.6081 C   0  0  0  0  0  0  0  0  0  0  0  0
   -1.6929   -1.9306    0.4394 C   0  0  0  0  0  0  0  0  0  0  0  0
   -2.2478   -1.9876   -1.9286 C   0  0  0  0  0  0  0  0  0  0  0  0
   -0.4069   -2.4417    0.1433 C   0  0  0  0  0  0  0  0  0  0  0  0
   -0.1234    1.6322   -0.7759 C   0  0  0  0  0  0  0  0  0  0  0  0
   -0.9832   -2.4903   -2.2197 C   0  0  0  0  0  0  0  0  0  0  0  0
   -0.0676   -2.7164   -1.1915 C   0  0  0  0  0  0  0  0  0  0  0  0
   -2.0322   -1.6558    1.7742 C   0  0  0  0  0  0  0  0  0  0  0  0
    0.5020   -2.6632    1.1908 C   0  0  0  0  0  0  0  0  0  0  0  0
    1.2219    1.5427   -0.2864 C   0  0  0  0  0  0  0  0  0  0  0  0
   -1.1167   -1.8820    2.8024 C   0  0  0  0  0  0  0  0  0  0  0  0
    0.1480   -2.3847    2.5112 C   0  0  0  0  0  0  0  0  0  0  0  0
    1.4702    1.0139    0.9803 C   0  0  0  0  0  0  0  0  0  0  0  0
    2.2820    1.9860   -1.0772 C   0  0  0  0  0  0  0  0  0  0  0  0
    2.7784    0.9286    1.4563 C   0  0  0  0  0  0  0  0  0  0  0  0
    3.5904    1.9008   -0.6012 C   0  0  0  0  0  0  0  0  0  0  0  0
    2.1812   -2.2591   -1.8152 C   0  0  0  0  0  0  0  0  0  0  0  0
    3.8385    1.3721    0.6655 C   0  0  0  0  0  0  0  0  0  0  0  0
    6.0505    0.5084    0.3928 C   0  0  0  0  0  0  0  0  0  0  0  0
   -4.1295    1.0625   -1.6128 H   0  0  0  0  0  0  0  0  0  0  0  0
   -3.6883    3.2738    0.2592 H   0  0  0  0  0  0  0  0  0  0  0  0
   -5.1083    2.8773   -0.7118 H   0  0  0  0  0  0  0  0  0  0  0  0
   -4.4398    2.0785    2.1261 H   0  0  0  0  0  0  0  0  0  0  0  0
   -6.0848    0.2642    0.2891 H   0  0  0  0  0  0  0  0  0  0  0  0
   -5.3715   -0.1314    1.8643 H   0  0  0  0  0  0  0  0  0  0  0  0
   -4.4942   -1.9059    0.2685 H   0  0  0  0  0  0  0  0  0  0  0  0
   -4.5724   -1.1336   -1.2880 H   0  0  0  0  0  0  0  0  0  0  0  0
   -6.1478    3.5062    1.5405 H   0  0  0  0  0  0  0  0  0  0  0  0
   -2.9452   -1.8166   -2.7444 H   0  0  0  0  0  0  0  0  0  0  0  0
   -0.7159   -2.7043   -3.2511 H   0  0  0  0  0  0  0  0  0  0  0  0
   -3.0111   -1.3025    2.0779 H   0  0  0  0  0  0  0  0  0  0  0  0
    1.4968   -3.0601    1.0025 H   0  0  0  0  0  0  0  0  0  0  0  0
   -1.3939   -1.6739    3.8317 H   0  0  0  0  0  0  0  0  0  0  0  0
    0.8594   -2.5625    3.3124 H   0  0  0  0  0  0  0  0  0  0  0  0
    0.6649    0.6681    1.6224 H   0  0  0  0  0  0  0  0  0  0  0  0
    2.1273    2.4045   -2.0684 H   0  0  0  0  0  0  0  0  0  0  0  0
    2.9657    0.5162    2.4440 H   0  0  0  0  0  0  0  0  0  0  0  0
    4.4064    2.2559   -1.2245 H   0  0  0  0  0  0  0  0  0  0  0  0
    3.0915   -2.8032   -2.0812 H   0  0  0  0  0  0  0  0  0  0  0  0
    2.3927   -1.6349   -0.9419 H   0  0  0  0  0  0  0  0  0  0  0  0
    1.8917   -1.6293   -2.6626 H   0  0  0  0  0  0  0  0  0  0  0  0
  1 35  1  0  0  0  0
  2 35  1  0  0  0  0
  3 35  1  0  0  0  0
  4 13  1  0  0  0  0
  4 44  1  0  0  0  0
  5 10  1  0  0  0  0
  5 16  1  0  0  0  0
  6 23  1  0  0  0  0
  6 33  1  0  0  0  0
  7 34  1  0  0  0  0
  7 35  1  0  0  0  0
  8 11  1  0  0  0  0
  8 14  1  0  0  0  0
  8 15  1  0  0  0  0
  9 16  2  0  0  0  0
  9 21  1  0  0  0  0
 10 21  2  0  0  0  0
 11 12  1  0  0  0  0
 11 16  1  0  0  0  0
 11 36  1  0  0  0  0
 12 13  1  0  0  0  0
 12 37  1  0  0  0  0
 12 38  1  0  0  0  0
 13 14  1  0  0  0  0
 13 39  1  0  0  0  0
 14 40  1  0  0  0  0
 14 41  1  0  0  0  0
 15 17  1  0  0  0  0
 15 42  1  0  0  0  0
 15 43  1  0  0  0  0
 17 18  1  0  0  0  0
 17 19  2  0  0  0  0
 18 20  1  0  0  0  0
 18 24  2  0  0  0  0
 19 22  1  0  0  0  0
 19 45  1  0  0  0  0
 20 23  1  0  0  0  0
 20 25  2  0  0  0  0
 21 26  1  0  0  0  0
 22 23  2  0  0  0  0
 22 46  1  0  0  0  0
 24 27  1  0  0  0  0
 24 47  1  0  0  0  0
 25 28  1  0  0  0  0
 25 48  1  0  0  0  0
 26 29  2  0  0  0  0
 26 30  1  0  0  0  0
 27 28  2  0  0  0  0
 27 49  1  0  0  0  0
 28 50  1  0  0  0  0
 29 31  1  0  0  0  0
 29 51  1  0  0  0  0
 30 32  2  0  0  0  0
 30 52  1  0  0  0  0
 31 34  2  0  0  0  0
 31 53  1  0  0  0  0
 32 34  1  0  0  0  0
 32 54  1  0  0  0  0
 33 55  1  0  0  0  0
 33 56  1  0  0  0  0
 33 57  1  0  0  0  0
M  END
> <PUBCHEM_COMPOUND_CID>
26743698

> <PUBCHEM_CONFORMER_RMSD>
1

> <PUBCHEM_CONFORMER_DIVERSEORDER>
1
75
81
79
17
33
71
27
21
41
31
96
80
19
51
83
74
59
26
55
49
97
87
20
39
73
90
25
62
77
2
78
92
68
85
63
60
94
89
88
7
14
11
16
100
6
58
66
95
29
91
57
34
24
56
12
84
69
82
9
37
36
54
53
42
46
98
15
44
52
61
22
40
64
23
28
3
45
47
72
93
50
38
18
10
70
35
65
99
76
13
5
86
67
4
48
43
32
30
8

> <PUBCHEM_MMFF94_PARTIAL_CHARGES>
43
1 -0.34
10 -0.41
11 0.45
13 0.28
14 0.27
15 0.41
16 0.3
17 -0.14
19 -0.15
2 -0.34
21 0.46
22 -0.15
23 0.08
24 -0.15
25 -0.15
26 0.05
27 -0.15
28 -0.15
29 -0.15
3 -0.34
30 -0.15
31 -0.15
32 -0.15
33 0.28
34 0.08
35 1.3
4 -0.68
44 0.4
45 0.15
46 0.15
47 0.15
48 0.15
49 0.15
5 -0.02
50 0.15
51 0.15
52 0.15
53 0.15
54 0.15
6 -0.36
7 -0.36
8 -0.81
9 -0.57

> <PUBCHEM_EFFECTIVE_ROTOR_COUNT>
8

> <PUBCHEM_PHARMACOPHORE_FEATURES>
11
1 4 acceptor
1 4 donor
1 6 acceptor
1 7 acceptor
1 8 cation
3 9 10 21 cation
5 5 9 10 16 21 rings
5 8 11 12 13 14 rings
6 17 18 19 20 22 23 rings
6 18 20 24 25 27 28 rings
6 26 29 30 31 32 34 rings

> <PUBCHEM_HEAVY_ATOM_COUNT>
35

> <PUBCHEM_ATOM_DEF_STEREO_COUNT>
2

> <PUBCHEM_ATOM_UDEF_STEREO_COUNT>
0

> <PUBCHEM_BOND_DEF_STEREO_COUNT>
0

> <PUBCHEM_BOND_UDEF_STEREO_COUNT>
0

> <PUBCHEM_ISOTOPIC_ATOM_COUNT>
0

> <PUBCHEM_COMPONENT_COUNT>
1

> <PUBCHEM_CACTVS_TAUTO_COUNT>
1

> <PUBCHEM_CONFORMER_ID>
0198139200000001

> <PUBCHEM_MMFF94_ENERGY>
104.9043

> <PUBCHEM_FEATURE_SELFOVERLAP>
55.849

> <PUBCHEM_SHAPE_FINGERPRINT>
11135926 11 17385989690838981642
11524674 6 18202560683549674276
12156800 1 16736404843018137947
12422481 6 18409452470591022594
12597179 24 18411987935645901807
12788726 201 17834412489791372813
13402501 40 18411141299340440622
13726171 33 17610665072973698924
14279260 333 17532068572380446402
14713325 29 18270398442318710107
14840074 17 17603865619641253780
15274700 242 17313925508168663184
15361156 5 18336552720051724860
15420108 30 18342452592140461261
20691752 17 17822298946818171063
21403212 168 18335700508324850801
23419403 2 17834723415084720467
3411729 13 18265902350563049129
392239 28 17676492739765396171
404807 14 16551181951854030726
4112364 45 16912040655073437761
508706 21 18270685384730552582
5265222 85 18198632219130967060
6669772 16 18262516979397960386

> <PUBCHEM_SHAPE_MULTIPOLES>
660.04
11.68
3.95
2.25
12.48
1.47
-0.32
-9.05
-3.96
-1.82
0.72
-0.54
1.38
-0.35

> <PUBCHEM_SHAPE_SELFOVERLAP>
1459.575

> <PUBCHEM_SHAPE_VOLUME>
357.9

> <PUBCHEM_COORDINATE_TYPE>
2
5
10

$$$$
