11913357
  -OEChem-12032416163D

 50 53  0     1  0  0  0  0  0999 V2000
    3.3949    3.6390   -1.0997 F   0  0  0  0  0  0  0  0  0  0  0  0
   -2.5033   -2.1786   -1.6883 O   0  0  0  0  0  0  0  0  0  0  0  0
   -1.0907    0.5744   -1.8849 O   0  0  0  0  0  0  0  0  0  0  0  0
   -5.7158    0.0816    0.3438 O   0  0  0  0  0  0  0  0  0  0  0  0
    0.2418   -2.4172   -0.2650 N   0  0  0  0  0  0  0  0  0  0  0  0
   -3.6684    1.0030   -0.2494 N   0  0  0  0  0  0  0  0  0  0  0  0
   -4.8955    1.9470    1.4536 N   0  0  0  0  0  0  0  0  0  0  0  0
    2.0991   -1.0320    0.1068 N   0  0  0  0  0  0  0  0  0  0  0  0
    1.6906   -2.9545    1.5010 N   0  0  0  0  0  0  0  0  0  0  0  0
   -1.0531   -0.4687   -0.8946 C   0  0  1  0  0  0  0  0  0  0  0  0
   -2.4528   -1.0447   -0.8045 C   0  0  1  0  0  0  0  0  0  0  0  0
   -0.2118   -1.6229   -1.3857 C   0  0  2  0  0  0  0  0  0  0  0  0
   -3.3442    0.0635   -1.3209 C   0  0  2  0  0  0  0  0  0  0  0  0
   -1.1945   -2.4153   -2.2288 C   0  0  0  0  0  0  0  0  0  0  0  0
   -2.4418    0.7403   -2.3412 C   0  0  0  0  0  0  0  0  0  0  0  0
    1.3776   -2.1258    0.4696 C   0  0  0  0  0  0  0  0  0  0  0  0
   -4.8408    0.9322    0.5014 C   0  0  0  0  0  0  0  0  0  0  0  0
   -6.0035    2.1052    2.3659 C   0  0  0  0  0  0  0  0  0  0  0  0
    3.1999   -0.7776    0.8441 C   0  0  0  0  0  0  0  0  0  0  0  0
    2.8041   -2.6413    2.1955 C   0  0  0  0  0  0  0  0  0  0  0  0
    3.6052   -1.5547    1.9101 C   0  0  0  0  0  0  0  0  0  0  0  0
    3.9503    0.3882    0.4429 C   0  0  0  0  0  0  0  0  0  0  0  0
   -7.0609    1.0436    2.1439 C   0  0  0  0  0  0  0  0  0  0  0  0
    3.2979    1.4735   -0.1464 C   0  0  0  0  0  0  0  0  0  0  0  0
    5.3320    0.4355    0.6427 C   0  0  0  0  0  0  0  0  0  0  0  0
    4.0233    2.6001   -0.5340 C   0  0  0  0  0  0  0  0  0  0  0  0
    6.0573    1.5620    0.2552 C   0  0  0  0  0  0  0  0  0  0  0  0
    5.4030    2.6444   -0.3330 C   0  0  0  0  0  0  0  0  0  0  0  0
   -0.7164   -0.0161    0.0434 H   0  0  0  0  0  0  0  0  0  0  0  0
   -2.7075   -1.3978    0.1999 H   0  0  0  0  0  0  0  0  0  0  0  0
    0.6339   -1.3174   -2.0125 H   0  0  0  0  0  0  0  0  0  0  0  0
   -4.2717   -0.2954   -1.7780 H   0  0  0  0  0  0  0  0  0  0  0  0
   -0.9994   -3.4921   -2.2455 H   0  0  0  0  0  0  0  0  0  0  0  0
   -1.2026   -2.0528   -3.2627 H   0  0  0  0  0  0  0  0  0  0  0  0
   -2.6501    1.8059   -2.4783 H   0  0  0  0  0  0  0  0  0  0  0  0
   -2.5176    0.2468   -3.3165 H   0  0  0  0  0  0  0  0  0  0  0  0
   -0.3165   -3.2039    0.0465 H   0  0  0  0  0  0  0  0  0  0  0  0
   -2.9780    1.7038    0.0034 H   0  0  0  0  0  0  0  0  0  0  0  0
   -4.1259    2.6066    1.5111 H   0  0  0  0  0  0  0  0  0  0  0  0
   -5.6043    2.0521    3.3833 H   0  0  0  0  0  0  0  0  0  0  0  0
   -6.4173    3.1067    2.2131 H   0  0  0  0  0  0  0  0  0  0  0  0
    3.0388   -3.3070    3.0192 H   0  0  0  0  0  0  0  0  0  0  0  0
    4.4723   -1.3482    2.5240 H   0  0  0  0  0  0  0  0  0  0  0  0
   -6.7068    0.0308    2.3623 H   0  0  0  0  0  0  0  0  0  0  0  0
   -7.5404    1.1121    1.1618 H   0  0  0  0  0  0  0  0  0  0  0  0
   -7.8695    1.2209    2.8651 H   0  0  0  0  0  0  0  0  0  0  0  0
    2.2226    1.4760   -0.3084 H   0  0  0  0  0  0  0  0  0  0  0  0
    5.8856   -0.3944    1.0737 H   0  0  0  0  0  0  0  0  0  0  0  0
    7.1325    1.5947    0.4058 H   0  0  0  0  0  0  0  0  0  0  0  0
    5.9677    3.5211   -0.6362 H   0  0  0  0  0  0  0  0  0  0  0  0
  1 26  1  0  0  0  0
  2 11  1  0  0  0  0
  2 14  1  0  0  0  0
  3 10  1  0  0  0  0
  3 15  1  0  0  0  0
  4 17  2  0  0  0  0
  5 12  1  0  0  0  0
  5 16  1  0  0  0  0
  5 37  1  0  0  0  0
  6 13  1  0  0  0  0
  6 17  1  0  0  0  0
  6 38  1  0  0  0  0
  7 17  1  0  0  0  0
  7 18  1  0  0  0  0
  7 39  1  0  0  0  0
  8 16  1  0  0  0  0
  8 19  2  0  0  0  0
  9 16  2  0  0  0  0
  9 20  1  0  0  0  0
 10 11  1  0  0  0  0
 10 12  1  0  0  0  0
 10 29  1  0  0  0  0
 11 13  1  0  0  0  0
 11 30  1  0  0  0  0
 12 14  1  0  0  0  0
 12 31  1  0  0  0  0
 13 15  1  0  0  0  0
 13 32  1  0  0  0  0
 14 33  1  0  0  0  0
 14 34  1  0  0  0  0
 15 35  1  0  0  0  0
 15 36  1  0  0  0  0
 18 23  1  0  0  0  0
 18 40  1  0  0  0  0
 18 41  1  0  0  0  0
 19 21  1  0  0  0  0
 19 22  1  0  0  0  0
 20 21  2  0  0  0  0
 20 42  1  0  0  0  0
 21 43  1  0  0  0  0
 22 24  2  0  0  0  0
 22 25  1  0  0  0  0
 23 44  1  0  0  0  0
 23 45  1  0  0  0  0
 23 46  1  0  0  0  0
 24 26  1  0  0  0  0
 24 47  1  0  0  0  0
 25 27  2  0  0  0  0
 25 48  1  0  0  0  0
 26 28  2  0  0  0  0
 27 28  1  0  0  0  0
 27 49  1  0  0  0  0
 28 50  1  0  0  0  0
M  END
> <PUBCHEM_COMPOUND_CID>
11913357

> <PUBCHEM_CONFORMER_RMSD>
1

> <PUBCHEM_CONFORMER_DIVERSEORDER>
1
21
339
159
216
394
335
330
350
225
250
318
109
183
27
303
209
244
282
53
356
300
382
245
284
153
283
72
135
204
19
163
357
69
56
280
205
203
17
198
112
363
375
289
373
389
189
116
218
309
134
285
290
352
251
367
236
256
268
214
122
81
32
326
405
102
202
398
361
232
142
138
267
156
18
234
194
14
270
108
131
139
127
46
76
247
333
273
73
320
349
253
366
176
304
164
371
201
143
148
279
137
38
259
185
97
249
296
393
188
404
293
287
74
6
168
239
348
20
274
121
252
295
157
206
260
12
374
68
171
291
346
129
337
196
193
338
311
347
275
207
165
31
231
140
399
44
91
351
226
178
82
215
96
172
257
117
261
354
75
186
288
334
199
95
200
317
319
255
35
370
2
401
327
59
144
237
25
187
322
377
362
276
228
173
406
345
170
63
223
392
331
11
297
341
403
227
195
217
396
42
365
353
229
39
323
254
151
368
299
272
110
306
118
222
312
8
243
87
89
302
344
342
385
358
49
269
26
264
379
113
355
192
78
133
160
316
175
48
119
360
241
298
84
58
211
13
190
408
246
111
150
124
332
132
387
221
24
126
41
197
380
277
85
324
65
321
71
340
329
22
336
308
191
328
167
314
101
30
391
50
98
104
36
386
381
315
60
162
390
307
169
278
180
70
305
149
83
384
395
208
258
54
294
141
343
123
219
210
383
114
88
301
33
10
45
64
23
184
158
136
57
106
266
103
94
16
174
388
40
86
359
220
166
67
400
233
325
240
369
130
152
161
92
212
90
179
378
28
263
120
43
29
397
37
115
313
271
66
213
62
154
147
146
51
77
79
55
61
230
224
286
15
105
242
372
7
47
364
128
402
310
407
235
93
4
292
145
99
80
281
265
177
125
376
155
52
262
238
248
3
5
9
182
100
34
181
107

> <PUBCHEM_MMFF94_PARTIAL_CHARGES>
35
1 -0.19
10 0.28
11 0.28
12 0.37
13 0.3
14 0.28
15 0.28
16 0.72
17 0.69
18 0.3
19 0.31
2 -0.56
20 0.16
21 -0.15
24 -0.15
25 -0.15
26 0.19
27 -0.15
28 -0.15
3 -0.56
37 0.4
38 0.37
39 0.37
4 -0.57
42 0.15
43 0.15
47 0.15
48 0.15
49 0.15
5 -0.87
50 0.15
6 -0.73
7 -0.73
8 -0.62
9 -0.62

> <PUBCHEM_EFFECTIVE_ROTOR_COUNT>
8.2

> <PUBCHEM_PHARMACOPHORE_FEATURES>
12
1 2 acceptor
1 3 acceptor
1 4 acceptor
1 5 donor
1 6 donor
1 7 donor
1 8 acceptor
4 5 8 9 16 cation
5 2 10 11 12 14 rings
5 3 10 11 13 15 rings
6 22 24 25 26 27 28 rings
6 8 9 16 19 20 21 rings

> <PUBCHEM_HEAVY_ATOM_COUNT>
28

> <PUBCHEM_ATOM_DEF_STEREO_COUNT>
4

> <PUBCHEM_ATOM_UDEF_STEREO_COUNT>
0

> <PUBCHEM_BOND_DEF_STEREO_COUNT>
0

> <PUBCHEM_BOND_UDEF_STEREO_COUNT>
0

> <PUBCHEM_ISOTOPIC_ATOM_COUNT>
0

> <PUBCHEM_COMPONENT_COUNT>
1

> <PUBCHEM_CACTVS_TAUTO_COUNT>
9

> <PUBCHEM_CONFORMER_ID>
00B5C88D00000001

> <PUBCHEM_MMFF94_ENERGY>
81.6027

> <PUBCHEM_FEATURE_SELFOVERLAP>
61.656

> <PUBCHEM_SHAPE_FINGERPRINT>
10674148 151 18131080333850045268
10794284 68 17911251825607871191
11049842 53 17560793274226759950
1200032 147 18272384061449225498
12975358 362 17198007106819982641
13398642 44 17677623140608437860
13583140 156 17606382268887540727
13782708 43 16009865022953041266
13828863 39 18410580608386758089
14114211 68 16844742928260186683
14251764 75 18263652934050316884
14341114 328 18341327817124822475
14765038 42 18337674234623274540
14840074 17 18413111649784195257
14950920 106 17896315818762693897
15163728 17 17632585924626947223
15183329 4 13542470838941793695
15188451 53 13623530168988706577
15238133 3 17560508521899273850
15297060 5 17489593354865354466
15338160 23 18271248330700235827
16067690 210 17274819190134368216
16120349 67 17418107493967797673
1768 23 18201726136944310585
19304671 126 14261340315984987547
19319366 153 18410007732642557962
20567600 234 18270684161250194705
21033650 10 16630234892180794023
21049683 118 15652452498565184983
21120745 212 17910665794284046991
21315763 87 17386300817921679395
21315764 119 17417822746827394508
21458453 9 16951710157575867057
21585480 29 17677348228679379035
21756936 100 17703504467515151647
21796203 349 17679849419922077810
3178227 256 17894910720760777592
3459 110 17822014258683664411
3552219 110 18196081373814129527
3680242 22 18115005482299229696
38570 142 18337684078661124662
392239 28 17676764353011917667
437795 70 13758086155828252307
4408954 87 17750251334184851699
474 4 18042946818466363022
50009960 94 15866348188868039571
5081480 168 17843688755714750406
5252454 2 18337938091321811868
57724786 102 18270962336626593454
7808743 9 17989485229965359183

> <PUBCHEM_SHAPE_MULTIPOLES>
526.44
15.24
3.62
2.36
11.67
0.13
-0.25
14.24
-9
-3.09
-0.2
2.7
-0.59
-4.9

> <PUBCHEM_SHAPE_SELFOVERLAP>
1139.049

> <PUBCHEM_SHAPE_VOLUME>
289.2

> <PUBCHEM_COORDINATE_TYPE>
2
5
10

$$$$
