45361391
  -OEChem-12032416313D

 84 87  0     1  0  0  0  0  0999 V2000
   -0.1193   -2.6818   -1.2696 O   0  0  0  0  0  0  0  0  0  0  0  0
    4.8201   -2.9909    0.7499 O   0  0  0  0  0  0  0  0  0  0  0  0
   -4.9049    1.2957   -1.9968 O   0  0  0  0  0  0  0  0  0  0  0  0
  -10.6813    0.1998    0.3420 O   0  0  0  0  0  0  0  0  0  0  0  0
    7.9087    1.3465    1.5102 O   0  0  0  0  0  0  0  0  0  0  0  0
    6.9070    3.5551    0.1519 O   0  0  0  0  0  0  0  0  0  0  0  0
   -4.3295    0.4467    0.0826 N   0  0  0  0  0  0  0  0  0  0  0  0
    4.3515   -2.0529   -1.3190 N   0  0  0  0  0  0  0  0  0  0  0  0
   -0.1435    0.3254    1.0823 C   0  0  1  0  0  0  0  0  0  0  0  0
   -0.6279   -0.6252   -0.0625 C   0  0  2  0  0  0  0  0  0  0  0  0
   -2.1870   -0.8107   -0.0130 C   0  0  1  0  0  0  0  0  0  0  0  0
    0.2012   -1.9416   -0.0908 C   0  0  2  0  0  0  0  0  0  0  0  0
    1.3761    0.5763    0.9364 C   0  0  0  0  0  0  0  0  0  0  0  0
   -0.8608    1.6881    0.9435 C   0  0  0  0  0  0  0  0  0  0  0  0
    1.7255   -1.6835   -0.1317 C   0  0  1  0  0  0  0  0  0  0  0  0
   -2.8960    0.5714   -0.0776 C   0  0  2  0  0  0  0  0  0  0  0  0
    2.1943   -0.7082    0.9479 C   0  0  0  0  0  0  0  0  0  0  0  0
   -2.3780    1.5690    0.9582 C   0  0  0  0  0  0  0  0  0  0  0  0
   -0.4190   -0.2548    2.4927 C   0  0  0  0  0  0  0  0  0  0  0  0
    2.5263   -2.9872   -0.0271 C   0  0  2  0  0  0  0  0  0  0  0  0
   -2.7357   -1.7132   -1.1310 C   0  0  0  0  0  0  0  0  0  0  0  0
    2.1930   -3.7048    1.2762 C   0  0  0  0  0  0  0  0  0  0  0  0
    4.0189   -2.6904   -0.1326 C   0  0  0  0  0  0  0  0  0  0  0  0
   -5.2207    0.8258   -0.9067 C   0  0  0  0  0  0  0  0  0  0  0  0
   -6.6597    0.6593   -0.5775 C   0  0  0  0  0  0  0  0  0  0  0  0
    5.7048   -1.6680   -1.6465 C   0  0  0  0  0  0  0  0  0  0  0  0
   -7.5899    0.4601   -1.5977 C   0  0  0  0  0  0  0  0  0  0  0  0
   -7.0809    0.7039    0.7515 C   0  0  0  0  0  0  0  0  0  0  0  0
    6.0262   -0.2820   -1.1669 C   0  0  0  0  0  0  0  0  0  0  0  0
   -8.9413    0.3059   -1.2889 C   0  0  0  0  0  0  0  0  0  0  0  0
   -8.4324    0.5498    1.0603 C   0  0  0  0  0  0  0  0  0  0  0  0
   -9.3625    0.3507    0.0401 C   0  0  0  0  0  0  0  0  0  0  0  0
    6.8268   -0.1029   -0.0387 C   0  0  0  0  0  0  0  0  0  0  0  0
    5.5242    0.8265   -1.8490 C   0  0  0  0  0  0  0  0  0  0  0  0
    7.1255    1.1845    0.4072 C   0  0  0  0  0  0  0  0  0  0  0  0
    5.8230    2.1138   -1.4031 C   0  0  0  0  0  0  0  0  0  0  0  0
    6.6237    2.2928   -0.2750 C   0  0  0  0  0  0  0  0  0  0  0  0
  -11.0419    0.2565    1.7213 C   0  0  0  0  0  0  0  0  0  0  0  0
    8.3808    0.1617    2.1490 C   0  0  0  0  0  0  0  0  0  0  0  0
    6.3549    4.6330   -0.6016 C   0  0  0  0  0  0  0  0  0  0  0  0
   -0.4245   -0.1183   -1.0195 H   0  0  0  0  0  0  0  0  0  0  0  0
   -2.4565   -1.2982    0.9325 H   0  0  0  0  0  0  0  0  0  0  0  0
   -0.1032   -2.5456    0.7655 H   0  0  0  0  0  0  0  0  0  0  0  0
    1.7314    1.2350    1.7393 H   0  0  0  0  0  0  0  0  0  0  0  0
    1.5746    1.1074   -0.0043 H   0  0  0  0  0  0  0  0  0  0  0  0
   -0.5474    2.3664    1.7473 H   0  0  0  0  0  0  0  0  0  0  0  0
   -0.5604    2.1687    0.0027 H   0  0  0  0  0  0  0  0  0  0  0  0
    1.9332   -1.2149   -1.1030 H   0  0  0  0  0  0  0  0  0  0  0  0
   -2.6923    0.9981   -1.0689 H   0  0  0  0  0  0  0  0  0  0  0  0
    3.2422   -0.4272    0.7913 H   0  0  0  0  0  0  0  0  0  0  0  0
    2.1456   -1.1347    1.9520 H   0  0  0  0  0  0  0  0  0  0  0  0
   -2.7239    1.2890    1.9607 H   0  0  0  0  0  0  0  0  0  0  0  0
   -2.8155    2.5573    0.7655 H   0  0  0  0  0  0  0  0  0  0  0  0
    0.0460   -1.2333    2.6415 H   0  0  0  0  0  0  0  0  0  0  0  0
   -0.0253    0.4136    3.2676 H   0  0  0  0  0  0  0  0  0  0  0  0
   -1.4847   -0.3850    2.6973 H   0  0  0  0  0  0  0  0  0  0  0  0
    2.2754   -3.6524   -0.8634 H   0  0  0  0  0  0  0  0  0  0  0  0
   -3.8299   -1.7224   -1.1510 H   0  0  0  0  0  0  0  0  0  0  0  0
   -2.4441   -2.7556   -0.9759 H   0  0  0  0  0  0  0  0  0  0  0  0
   -2.3868   -1.3846   -2.1153 H   0  0  0  0  0  0  0  0  0  0  0  0
   -4.6575    0.0182    0.9415 H   0  0  0  0  0  0  0  0  0  0  0  0
    0.0943   -2.1296   -2.0410 H   0  0  0  0  0  0  0  0  0  0  0  0
    1.1538   -4.0362    1.3311 H   0  0  0  0  0  0  0  0  0  0  0  0
    2.7928   -4.6221    1.3432 H   0  0  0  0  0  0  0  0  0  0  0  0
    2.4342   -3.1351    2.1766 H   0  0  0  0  0  0  0  0  0  0  0  0
    3.6387   -1.8864   -2.0219 H   0  0  0  0  0  0  0  0  0  0  0  0
    6.4011   -2.4028   -1.2259 H   0  0  0  0  0  0  0  0  0  0  0  0
    5.8095   -1.7190   -2.7364 H   0  0  0  0  0  0  0  0  0  0  0  0
   -7.2802    0.4179   -2.6386 H   0  0  0  0  0  0  0  0  0  0  0  0
   -6.3943    0.8889    1.5723 H   0  0  0  0  0  0  0  0  0  0  0  0
   -9.6613    0.1500   -2.0877 H   0  0  0  0  0  0  0  0  0  0  0  0
   -8.6920    0.6022    2.1122 H   0  0  0  0  0  0  0  0  0  0  0  0
    7.1869   -1.0004    0.4525 H   0  0  0  0  0  0  0  0  0  0  0  0
    4.8986    0.6978   -2.7285 H   0  0  0  0  0  0  0  0  0  0  0  0
    5.3982    2.9268   -1.9817 H   0  0  0  0  0  0  0  0  0  0  0  0
  -12.1264    0.1165    1.7778 H   0  0  0  0  0  0  0  0  0  0  0  0
  -10.8237    1.2387    2.1542 H   0  0  0  0  0  0  0  0  0  0  0  0
  -10.5843   -0.5594    2.2909 H   0  0  0  0  0  0  0  0  0  0  0  0
    7.5557   -0.4382    2.5480 H   0  0  0  0  0  0  0  0  0  0  0  0
    9.0389   -0.4168    1.4918 H   0  0  0  0  0  0  0  0  0  0  0  0
    8.9860    0.4774    3.0053 H   0  0  0  0  0  0  0  0  0  0  0  0
    6.7432    4.6502   -1.6256 H   0  0  0  0  0  0  0  0  0  0  0  0
    5.2600    4.6278   -0.5707 H   0  0  0  0  0  0  0  0  0  0  0  0
    6.6817    5.5617   -0.1223 H   0  0  0  0  0  0  0  0  0  0  0  0
  1 12  1  0  0  0  0
  1 62  1  0  0  0  0
  2 23  2  0  0  0  0
  3 24  2  0  0  0  0
  4 32  1  0  0  0  0
  4 38  1  0  0  0  0
  5 35  1  0  0  0  0
  5 39  1  0  0  0  0
  6 37  1  0  0  0  0
  6 40  1  0  0  0  0
  7 16  1  0  0  0  0
  7 24  1  0  0  0  0
  7 61  1  0  0  0  0
  8 23  1  0  0  0  0
  8 26  1  0  0  0  0
  8 66  1  0  0  0  0
  9 10  1  0  0  0  0
  9 13  1  0  0  0  0
  9 14  1  0  0  0  0
  9 19  1  0  0  0  0
 10 11  1  0  0  0  0
 10 12  1  0  0  0  0
 10 41  1  0  0  0  0
 11 16  1  0  0  0  0
 11 21  1  0  0  0  0
 11 42  1  0  0  0  0
 12 15  1  0  0  0  0
 12 43  1  0  0  0  0
 13 17  1  0  0  0  0
 13 44  1  0  0  0  0
 13 45  1  0  0  0  0
 14 18  1  0  0  0  0
 14 46  1  0  0  0  0
 14 47  1  0  0  0  0
 15 17  1  0  0  0  0
 15 20  1  0  0  0  0
 15 48  1  0  0  0  0
 16 18  1  0  0  0  0
 16 49  1  0  0  0  0
 17 50  1  0  0  0  0
 17 51  1  0  0  0  0
 18 52  1  0  0  0  0
 18 53  1  0  0  0  0
 19 54  1  0  0  0  0
 19 55  1  0  0  0  0
 19 56  1  0  0  0  0
 20 22  1  0  0  0  0
 20 23  1  0  0  0  0
 20 57  1  0  0  0  0
 21 58  1  0  0  0  0
 21 59  1  0  0  0  0
 21 60  1  0  0  0  0
 22 63  1  0  0  0  0
 22 64  1  0  0  0  0
 22 65  1  0  0  0  0
 24 25  1  0  0  0  0
 25 27  2  0  0  0  0
 25 28  1  0  0  0  0
 26 29  1  0  0  0  0
 26 67  1  0  0  0  0
 26 68  1  0  0  0  0
 27 30  1  0  0  0  0
 27 69  1  0  0  0  0
 28 31  2  0  0  0  0
 28 70  1  0  0  0  0
 29 33  2  0  0  0  0
 29 34  1  0  0  0  0
 30 32  2  0  0  0  0
 30 71  1  0  0  0  0
 31 32  1  0  0  0  0
 31 72  1  0  0  0  0
 33 35  1  0  0  0  0
 33 73  1  0  0  0  0
 34 36  2  0  0  0  0
 34 74  1  0  0  0  0
 35 37  2  0  0  0  0
 36 37  1  0  0  0  0
 36 75  1  0  0  0  0
 38 76  1  0  0  0  0
 38 77  1  0  0  0  0
 38 78  1  0  0  0  0
 39 79  1  0  0  0  0
 39 80  1  0  0  0  0
 39 81  1  0  0  0  0
 40 82  1  0  0  0  0
 40 83  1  0  0  0  0
 40 84  1  0  0  0  0
M  END
> <PUBCHEM_COMPOUND_CID>
45361391

> <PUBCHEM_CONFORMER_RMSD>
1.2

> <PUBCHEM_CONFORMER_DIVERSEORDER>
6
26
3
25
93
59
178
117
133
89
137
41
27
120
173
124
19
23
159
77
110
13
102
144
46
65
32
134
39
47
87
119
169
107
181
164
14
56
30
168
75
111
69
122
92
42
4
121
153
175
9
151
82
71
123
74
15
94
139
97
108
150
88
64
33
11
118
170
131
18
90
68
156
141
84
100
145
116
132
40
158
177
28
29
8
58
53
57
112
22
138
62
10
66
166
96
98
85
115
140
91
163
1
2
52
35
162
70
171
161
113
155
152
24
48
45
55
130
114
157
7
142
160
129
34
73
143
86
176
78
38
179
61
83
180
174
106
44
99
50
147
49
31
127
148
20
79
149
104
146
5
12
95
109
81
154
105
103
136
36
125
135
63
16
80
128
17
37
172
167
43
54
165
72
67
51
60
21
101
76
126

> <PUBCHEM_MMFF94_PARTIAL_CHARGES>
39
1 -0.68
12 0.28
16 0.3
2 -0.57
20 0.06
23 0.57
24 0.54
25 0.09
26 0.44
27 -0.15
28 -0.15
29 -0.14
3 -0.57
30 -0.15
31 -0.15
32 0.08
33 -0.15
34 -0.15
35 0.08
36 -0.15
37 0.08
38 0.28
39 0.28
4 -0.36
40 0.28
5 -0.36
6 -0.36
61 0.37
62 0.4
66 0.37
69 0.15
7 -0.73
70 0.15
71 0.15
72 0.15
73 0.15
74 0.15
75 0.15
8 -0.73

> <PUBCHEM_EFFECTIVE_ROTOR_COUNT>
12.6

> <PUBCHEM_PHARMACOPHORE_FEATURES>
14
1 1 acceptor
1 1 donor
1 2 acceptor
1 22 hydrophobe
1 3 acceptor
1 4 acceptor
1 5 acceptor
1 6 acceptor
1 7 donor
1 8 donor
6 25 27 28 30 31 32 rings
6 29 33 34 35 36 37 rings
6 9 10 11 14 16 18 rings
6 9 10 12 13 15 17 rings

> <PUBCHEM_HEAVY_ATOM_COUNT>
40

> <PUBCHEM_ATOM_DEF_STEREO_COUNT>
6

> <PUBCHEM_ATOM_UDEF_STEREO_COUNT>
1

> <PUBCHEM_BOND_DEF_STEREO_COUNT>
0

> <PUBCHEM_BOND_UDEF_STEREO_COUNT>
0

> <PUBCHEM_ISOTOPIC_ATOM_COUNT>
0

> <PUBCHEM_COMPONENT_COUNT>
1

> <PUBCHEM_CACTVS_TAUTO_COUNT>
4

> <PUBCHEM_CONFORMER_ID>
02B428EF00000006

> <PUBCHEM_MMFF94_ENERGY>
144.7376

> <PUBCHEM_FEATURE_SELFOVERLAP>
71.068

> <PUBCHEM_SHAPE_FINGERPRINT>
10391435 84 17676215680500511843
10533779 1 18197780102279164704
10533779 47 10807934903795929181
10666366 153 11095887055754666491
10673678 19 18410859854339116286
11007060 377 18188219715119066641
11211813 74 18410856551482924045
11409948 35 10880004544573848417
11966995 178 18409455765295071718
12098696 120 18335696152927358589
13617811 41 18341890797196360344
13782708 43 12175619559920451064
13811026 1 17822013099010943197
13947947 19 17917988396038538135
13947947 74 18409452449638451827
14117953 113 18412832396286576868
15840311 113 18410862044735319270
16728433 110 18408606955883948445
16992787 43 18342742927223590977
17686467 74 17967256378561287821
19302320 297 18113616824788544844
20554085 129 16225767410688804616
20715895 44 18410009971243587174
21781055 127 15554182406752557107
21792934 111 11458421332653192215
21792938 79 18339935882875714873
23522609 53 17630910238778298377
23569914 2 16881838285422370212
23729417 116 16973658239882351862
3044373 193 17022625252233021694
3525247 94 7853564688066834289
3552219 110 17917718964039583273
3711267 37 18201441346632941145
3918712 181 18341331214840105560
4112364 45 17968086543745874300
4149490 64 18113617846252666322
439807 62 12823300087851319236
5028188 123 16200423685887504677
57634706 280 17967252013777120034
6201320 215 11747201452615443767
9831232 110 12319448892453797668

> <PUBCHEM_SHAPE_MULTIPOLES>
778
32.67
3.56
1.82
59.92
0.27
-0.21
17.83
-1.82
-10.45
0.33
-0.38
0.02
-0.22

> <PUBCHEM_SHAPE_SELFOVERLAP>
1641.929

> <PUBCHEM_SHAPE_VOLUME>
434

> <PUBCHEM_COORDINATE_TYPE>
2
5
10

$$$$
