45783438
  -OEChem-12032416263D

 53 56  0     1  0  0  0  0  0999 V2000
   -2.7138    1.6808   -1.5132 O   0  0  0  0  0  0  0  0  0  0  0  0
    3.6151    1.3535    1.3170 O   0  0  0  0  0  0  0  0  0  0  0  0
    5.2234   -0.9312    1.5190 O   0  0  0  0  0  0  0  0  0  0  0  0
   -3.5668   -0.5474    1.2819 N   0  0  1  0  0  0  0  0  0  0  0  0
   -1.3398    1.0895    0.1538 N   0  0  0  0  0  0  0  0  0  0  0  0
   -1.4315    2.0881   -1.9025 N   0  0  0  0  0  0  0  0  0  0  0  0
    1.2708    2.5423   -1.9018 N   0  0  0  0  0  0  0  0  0  0  0  0
    2.5502   -2.8956   -2.4681 N   0  0  0  0  0  0  0  0  0  0  0  0
   -3.8322    0.5712    0.3552 C   0  0  1  0  0  0  0  0  0  0  0  0
   -4.5510    1.6283    1.2138 C   0  0  0  0  0  0  0  0  0  0  0  0
   -4.6986    0.9910    2.5881 C   0  0  0  0  0  0  0  0  0  0  0  0
   -4.6128   -0.4949    2.3034 C   0  0  0  0  0  0  0  0  0  0  0  0
   -3.5137   -1.8433    0.6177 C   0  0  0  0  0  0  0  0  0  0  0  0
   -2.5706    1.1030   -0.2918 C   0  0  0  0  0  0  0  0  0  0  0  0
   -2.1876   -2.0736   -0.0572 C   0  0  0  0  0  0  0  0  0  0  0  0
   -2.1363   -2.3157   -1.4300 C   0  0  0  0  0  0  0  0  0  0  0  0
   -1.0103   -2.0448    0.6904 C   0  0  0  0  0  0  0  0  0  0  0  0
   -0.6771    1.7045   -0.8682 C   0  0  0  0  0  0  0  0  0  0  0  0
   -0.9078   -2.5288   -2.0551 C   0  0  0  0  0  0  0  0  0  0  0  0
    0.2182   -2.2580    0.0653 C   0  0  0  0  0  0  0  0  0  0  0  0
    0.7401    1.9221   -0.8241 C   0  0  0  0  0  0  0  0  0  0  0  0
    0.2695   -2.4998   -1.3075 C   0  0  0  0  0  0  0  0  0  0  0  0
    1.4773    1.5063    0.2729 C   0  0  0  0  0  0  0  0  0  0  0  0
    2.8476    1.7423    0.2633 C   0  0  0  0  0  0  0  0  0  0  0  0
    1.5280   -2.7183   -1.9479 C   0  0  0  0  0  0  0  0  0  0  0  0
    2.6058    2.7545   -1.8753 C   0  0  0  0  0  0  0  0  0  0  0  0
    3.4305    2.3777   -0.8275 C   0  0  0  0  0  0  0  0  0  0  0  0
    3.1835    0.2052    2.0466 C   0  0  0  0  0  0  0  0  0  0  0  0
    4.3982   -0.5147    2.6001 C   0  0  0  0  0  0  0  0  0  0  0  0
    6.3917   -1.5944    1.9815 C   0  0  0  0  0  0  0  0  0  0  0  0
   -4.5255    0.2619   -0.4397 H   0  0  0  0  0  0  0  0  0  0  0  0
   -4.0155    2.5814    1.2824 H   0  0  0  0  0  0  0  0  0  0  0  0
   -5.5443    1.8300    0.7947 H   0  0  0  0  0  0  0  0  0  0  0  0
   -5.6369    1.2715    3.0756 H   0  0  0  0  0  0  0  0  0  0  0  0
   -3.8704    1.3051    3.2355 H   0  0  0  0  0  0  0  0  0  0  0  0
   -5.5730   -0.8654    1.9225 H   0  0  0  0  0  0  0  0  0  0  0  0
   -4.3425   -1.0611    3.2001 H   0  0  0  0  0  0  0  0  0  0  0  0
   -4.3501   -1.9769   -0.0809 H   0  0  0  0  0  0  0  0  0  0  0  0
   -3.6195   -2.6473    1.3598 H   0  0  0  0  0  0  0  0  0  0  0  0
   -3.0453   -2.3389   -2.0250 H   0  0  0  0  0  0  0  0  0  0  0  0
   -1.0344   -1.8632    1.7617 H   0  0  0  0  0  0  0  0  0  0  0  0
   -0.8839   -2.7152   -3.1261 H   0  0  0  0  0  0  0  0  0  0  0  0
    1.1263   -2.2391    0.6622 H   0  0  0  0  0  0  0  0  0  0  0  0
    0.9873    1.0397    1.1208 H   0  0  0  0  0  0  0  0  0  0  0  0
    3.0112    3.2531   -2.7495 H   0  0  0  0  0  0  0  0  0  0  0  0
    4.4964    2.5742   -0.8620 H   0  0  0  0  0  0  0  0  0  0  0  0
    2.6564   -0.5008    1.3938 H   0  0  0  0  0  0  0  0  0  0  0  0
    2.5270    0.5207    2.8646 H   0  0  0  0  0  0  0  0  0  0  0  0
    4.9704    0.1658    3.2413 H   0  0  0  0  0  0  0  0  0  0  0  0
    4.0833   -1.3858    3.1853 H   0  0  0  0  0  0  0  0  0  0  0  0
    6.9953   -0.9227    2.5994 H   0  0  0  0  0  0  0  0  0  0  0  0
    6.1247   -2.4912    2.5488 H   0  0  0  0  0  0  0  0  0  0  0  0
    6.9836   -1.8947    1.1127 H   0  0  0  0  0  0  0  0  0  0  0  0
  1  6  1  0  0  0  0
  1 14  1  0  0  0  0
  2 24  1  0  0  0  0
  2 28  1  0  0  0  0
  3 29  1  0  0  0  0
  3 30  1  0  0  0  0
  4  9  1  0  0  0  0
  4 12  1  0  0  0  0
  4 13  1  0  0  0  0
  5 14  2  0  0  0  0
  5 18  1  0  0  0  0
  6 18  2  0  0  0  0
  7 21  2  0  0  0  0
  7 26  1  0  0  0  0
  8 25  3  0  0  0  0
  9 10  1  0  0  0  0
  9 14  1  0  0  0  0
  9 31  1  0  0  0  0
 10 11  1  0  0  0  0
 10 32  1  0  0  0  0
 10 33  1  0  0  0  0
 11 12  1  0  0  0  0
 11 34  1  0  0  0  0
 11 35  1  0  0  0  0
 12 36  1  0  0  0  0
 12 37  1  0  0  0  0
 13 15  1  0  0  0  0
 13 38  1  0  0  0  0
 13 39  1  0  0  0  0
 15 16  2  0  0  0  0
 15 17  1  0  0  0  0
 16 19  1  0  0  0  0
 16 40  1  0  0  0  0
 17 20  2  0  0  0  0
 17 41  1  0  0  0  0
 18 21  1  0  0  0  0
 19 22  2  0  0  0  0
 19 42  1  0  0  0  0
 20 22  1  0  0  0  0
 20 43  1  0  0  0  0
 21 23  1  0  0  0  0
 22 25  1  0  0  0  0
 23 24  2  0  0  0  0
 23 44  1  0  0  0  0
 24 27  1  0  0  0  0
 26 27  2  0  0  0  0
 26 45  1  0  0  0  0
 27 46  1  0  0  0  0
 28 29  1  0  0  0  0
 28 47  1  0  0  0  0
 28 48  1  0  0  0  0
 29 49  1  0  0  0  0
 29 50  1  0  0  0  0
 30 51  1  0  0  0  0
 30 52  1  0  0  0  0
 30 53  1  0  0  0  0
M  END
> <PUBCHEM_COMPOUND_CID>
45783438

> <PUBCHEM_CONFORMER_RMSD>
1

> <PUBCHEM_CONFORMER_DIVERSEORDER>
1
19
8
71
23
104
40
74
33
38
5
44
15
102
54
114
117
79
84
109
94
36
34
64
72
68
83
78
52
65
108
46
112
116
39
42
30
10
63
29
16
119
77
14
32
57
70
12
82
98
80
50
62
43
85
11
101
88
48
27
105
103
107
20
56
21
59
97
28
120
55
13
18
17
95
69
53
96
61
100
89
91
25
66
111
58
24
9
4
110
81
47
41
76
92
2
118
73
93
31
7
3
75
113
60
45
6
99
37
26
106
90
35
49
86
51
22
87
115
67

> <PUBCHEM_MMFF94_PARTIAL_CHARGES>
35
1 -0.02
12 0.27
13 0.41
14 0.3
15 -0.14
16 -0.15
17 -0.15
18 0.46
19 -0.15
2 -0.36
20 -0.15
21 0.36
22 0.07
23 -0.15
24 0.08
25 0.48
26 0.16
27 -0.15
28 0.28
29 0.28
3 -0.56
30 0.28
4 -0.81
40 0.15
41 0.15
42 0.15
43 0.15
44 0.15
45 0.15
46 0.15
5 -0.57
6 -0.41
7 -0.62
8 -0.56
9 0.45

> <PUBCHEM_EFFECTIVE_ROTOR_COUNT>
9

> <PUBCHEM_PHARMACOPHORE_FEATURES>
10
1 2 acceptor
1 3 acceptor
1 4 cation
1 7 acceptor
1 8 acceptor
3 5 6 18 cation
5 1 5 6 14 18 rings
5 4 9 10 11 12 rings
6 15 16 17 19 20 22 rings
6 7 21 23 24 26 27 rings

> <PUBCHEM_HEAVY_ATOM_COUNT>
30

> <PUBCHEM_ATOM_DEF_STEREO_COUNT>
1

> <PUBCHEM_ATOM_UDEF_STEREO_COUNT>
0

> <PUBCHEM_BOND_DEF_STEREO_COUNT>
0

> <PUBCHEM_BOND_UDEF_STEREO_COUNT>
0

> <PUBCHEM_ISOTOPIC_ATOM_COUNT>
0

> <PUBCHEM_COMPONENT_COUNT>
1

> <PUBCHEM_CACTVS_TAUTO_COUNT>
1

> <PUBCHEM_CONFORMER_ID>
02BA998E00000001

> <PUBCHEM_MMFF94_ENERGY>
65.9195

> <PUBCHEM_FEATURE_SELFOVERLAP>
50.752

> <PUBCHEM_SHAPE_FINGERPRINT>
11112241 14 17345737617110540402
12156800 1 14687543853492989330
12422481 6 18411697660613647802
12633257 1 18334295366032708619
12788726 201 17409377612451594749
13165053 68 16987980753522978335
15064986 96 18337688442036648265
15274700 242 17534621818722036228
15419008 47 17697333811235974950
16110190 28 18408595981772892320
19319366 153 16530608426823406077
20554085 129 17775293729604011305
20691752 17 17896906381288045223
20764821 26 18341334465665430766
4112364 45 16485863376641424155
5265222 85 17694820649397384564
6287921 2 17915474813230036975
7064713 232 18201999945119307907
9862522 239 18411135874944529469

> <PUBCHEM_SHAPE_MULTIPOLES>
574.87
10.06
4.01
2.84
5.41
1.29
-0.57
-0.43
-10.1
1.35
2.9
1.41
0.39
-1.55

> <PUBCHEM_SHAPE_SELFOVERLAP>
1234.967

> <PUBCHEM_SHAPE_VOLUME>
316.4

> <PUBCHEM_COORDINATE_TYPE>
2
5
10

$$$$
