11883371
  -OEChem-12032416123D

 52 55  0     1  0  0  0  0  0999 V2000
   -8.5571    0.8243    0.0969 S   0  0  0  0  0  0  0  0  0  0  0  0
   -1.8067    0.7028   -0.9137 O   0  0  0  0  0  0  0  0  0  0  0  0
   -1.9150   -2.3402   -1.2772 O   0  0  0  0  0  0  0  0  0  0  0  0
    0.7741   -0.1579   -0.3614 O   0  0  0  0  0  0  0  0  0  0  0  0
   -6.3959   -0.1642   -1.7271 O   0  0  0  0  0  0  0  0  0  0  0  0
    2.2312   -1.6833    0.5217 O   0  0  0  0  0  0  0  0  0  0  0  0
    6.8906   -1.8657    1.3575 O   0  0  0  0  0  0  0  0  0  0  0  0
    7.2733    2.5358   -0.4483 O   0  0  0  0  0  0  0  0  0  0  0  0
   -4.7013   -0.2254   -0.1771 N   0  0  0  0  0  0  0  0  0  0  0  0
    2.9549    0.4064   -0.2465 N   0  0  0  0  0  0  0  0  0  0  0  0
   -2.6079   -1.4610   -0.3667 C   0  0  1  0  0  0  0  0  0  0  0  0
   -1.6285   -0.3724    0.0235 C   0  0  1  0  0  0  0  0  0  0  0  0
   -3.7037   -0.7185   -1.0951 C   0  0  2  0  0  0  0  0  0  0  0  0
   -0.2936   -1.0549   -0.1552 C   0  0  1  0  0  0  0  0  0  0  0  0
   -2.9413    0.4218   -1.7477 C   0  0  0  0  0  0  0  0  0  0  0  0
   -0.5422   -1.9309   -1.3624 C   0  0  0  0  0  0  0  0  0  0  0  0
   -6.0161    0.0242   -0.5700 C   0  0  0  0  0  0  0  0  0  0  0  0
    2.0291   -0.5830    0.0228 C   0  0  0  0  0  0  0  0  0  0  0  0
   -6.9232    0.4925    0.4874 C   0  0  0  0  0  0  0  0  0  0  0  0
   -6.6535    0.7201    1.8190 C   0  0  0  0  0  0  0  0  0  0  0  0
    4.3482    0.3823   -0.0100 C   0  0  0  0  0  0  0  0  0  0  0  0
   -7.8035    1.1727    2.5280 C   0  0  0  0  0  0  0  0  0  0  0  0
   -8.9083    1.2738    1.7114 C   0  0  0  0  0  0  0  0  0  0  0  0
    5.1325    1.4844   -0.3502 C   0  0  0  0  0  0  0  0  0  0  0  0
    4.9387   -0.7435    0.5640 C   0  0  0  0  0  0  0  0  0  0  0  0
    6.3136   -0.7672    0.7979 C   0  0  0  0  0  0  0  0  0  0  0  0
    6.5075    1.4606   -0.1164 C   0  0  0  0  0  0  0  0  0  0  0  0
    7.0980    0.3348    0.4576 C   0  0  0  0  0  0  0  0  0  0  0  0
    8.3010   -1.8219    1.5684 C   0  0  0  0  0  0  0  0  0  0  0  0
    6.6052    3.6536   -1.0313 C   0  0  0  0  0  0  0  0  0  0  0  0
   -2.9496   -2.0631    0.4813 H   0  0  0  0  0  0  0  0  0  0  0  0
   -1.7834    0.0335    1.0274 H   0  0  0  0  0  0  0  0  0  0  0  0
   -4.1947   -1.3327   -1.8577 H   0  0  0  0  0  0  0  0  0  0  0  0
   -0.1313   -1.6866    0.7291 H   0  0  0  0  0  0  0  0  0  0  0  0
   -3.5308    1.3348   -1.8753 H   0  0  0  0  0  0  0  0  0  0  0  0
   -2.5543    0.1226   -2.7280 H   0  0  0  0  0  0  0  0  0  0  0  0
    0.1026   -2.8147   -1.3754 H   0  0  0  0  0  0  0  0  0  0  0  0
   -0.3909   -1.3938   -2.3056 H   0  0  0  0  0  0  0  0  0  0  0  0
   -4.4053   -0.0233    0.7718 H   0  0  0  0  0  0  0  0  0  0  0  0
    2.5915    1.2582   -0.6669 H   0  0  0  0  0  0  0  0  0  0  0  0
   -5.6899    0.5769    2.2896 H   0  0  0  0  0  0  0  0  0  0  0  0
   -7.8200    1.4117    3.5834 H   0  0  0  0  0  0  0  0  0  0  0  0
   -9.9048    1.5902    1.9857 H   0  0  0  0  0  0  0  0  0  0  0  0
    4.6221    2.3333   -0.7935 H   0  0  0  0  0  0  0  0  0  0  0  0
    4.3902   -1.6302    0.8511 H   0  0  0  0  0  0  0  0  0  0  0  0
    8.1709    0.3775    0.6140 H   0  0  0  0  0  0  0  0  0  0  0  0
    8.8472   -1.7385    0.6227 H   0  0  0  0  0  0  0  0  0  0  0  0
    8.5776   -1.0357    2.2790 H   0  0  0  0  0  0  0  0  0  0  0  0
    8.5897   -2.7765    2.0204 H   0  0  0  0  0  0  0  0  0  0  0  0
    6.1523    3.3947   -1.9944 H   0  0  0  0  0  0  0  0  0  0  0  0
    5.8829    4.0977   -0.3379 H   0  0  0  0  0  0  0  0  0  0  0  0
    7.3655    4.4158   -1.2312 H   0  0  0  0  0  0  0  0  0  0  0  0
  1 19  1  0  0  0  0
  1 23  1  0  0  0  0
  2 12  1  0  0  0  0
  2 15  1  0  0  0  0
  3 11  1  0  0  0  0
  3 16  1  0  0  0  0
  4 14  1  0  0  0  0
  4 18  1  0  0  0  0
  5 17  2  0  0  0  0
  6 18  2  0  0  0  0
  7 26  1  0  0  0  0
  7 29  1  0  0  0  0
  8 27  1  0  0  0  0
  8 30  1  0  0  0  0
  9 13  1  0  0  0  0
  9 17  1  0  0  0  0
  9 39  1  0  0  0  0
 10 18  1  0  0  0  0
 10 21  1  0  0  0  0
 10 40  1  0  0  0  0
 11 12  1  0  0  0  0
 11 13  1  0  0  0  0
 11 31  1  0  0  0  0
 12 14  1  0  0  0  0
 12 32  1  0  0  0  0
 13 15  1  0  0  0  0
 13 33  1  0  0  0  0
 14 16  1  0  0  0  0
 14 34  1  0  0  0  0
 15 35  1  0  0  0  0
 15 36  1  0  0  0  0
 16 37  1  0  0  0  0
 16 38  1  0  0  0  0
 17 19  1  0  0  0  0
 19 20  2  0  0  0  0
 20 22  1  0  0  0  0
 20 41  1  0  0  0  0
 21 24  2  0  0  0  0
 21 25  1  0  0  0  0
 22 23  2  0  0  0  0
 22 42  1  0  0  0  0
 23 43  1  0  0  0  0
 24 27  1  0  0  0  0
 24 44  1  0  0  0  0
 25 26  2  0  0  0  0
 25 45  1  0  0  0  0
 26 28  1  0  0  0  0
 27 28  2  0  0  0  0
 28 46  1  0  0  0  0
 29 47  1  0  0  0  0
 29 48  1  0  0  0  0
 29 49  1  0  0  0  0
 30 50  1  0  0  0  0
 30 51  1  0  0  0  0
 30 52  1  0  0  0  0
M  END
> <PUBCHEM_COMPOUND_CID>
11883371

> <PUBCHEM_CONFORMER_RMSD>
1

> <PUBCHEM_CONFORMER_DIVERSEORDER>
2
29
88
53
89
102
73
115
83
8
84
52
35
22
125
122
119
38
80
117
72
82
108
120
11
98
104
69
118
79
44
45
70
112
123
61
100
4
97
92
39
85
65
86
105
42
18
28
78
75
114
54
81
46
32
68
10
124
57
55
111
101
23
48
76
37
33
67
99
30
93
49
56
12
90
25
47
103
14
3
20
107
74
106
26
121
9
77
94
15
87
31
5
62
50
17
64
109
19
113
51
36
13
66
96
91
71
7
21
59
63
6
27
40
95
116
43
24
1
16
60
58
34
110
41

> <PUBCHEM_MMFF94_PARTIAL_CHARGES>
38
1 -0.08
10 -0.55
11 0.28
12 0.28
13 0.3
14 0.28
15 0.28
16 0.28
17 0.71
18 0.78
19 -0.05
2 -0.56
20 -0.15
21 0.12
22 -0.15
23 -0.11
24 -0.15
25 -0.15
26 0.08
27 0.08
28 -0.15
29 0.28
3 -0.56
30 0.28
39 0.37
4 -0.43
40 0.37
41 0.15
42 0.15
43 0.15
44 0.15
45 0.15
46 0.15
5 -0.57
6 -0.57
7 -0.36
8 -0.36
9 -0.73

> <PUBCHEM_EFFECTIVE_ROTOR_COUNT>
10.2

> <PUBCHEM_PHARMACOPHORE_FEATURES>
12
1 10 donor
1 2 acceptor
1 3 acceptor
1 5 acceptor
1 6 acceptor
1 7 acceptor
1 8 acceptor
1 9 donor
5 1 19 20 22 23 rings
5 2 11 12 13 15 rings
5 3 11 12 14 16 rings
6 21 24 25 26 27 28 rings

> <PUBCHEM_HEAVY_ATOM_COUNT>
30

> <PUBCHEM_ATOM_DEF_STEREO_COUNT>
4

> <PUBCHEM_ATOM_UDEF_STEREO_COUNT>
0

> <PUBCHEM_BOND_DEF_STEREO_COUNT>
0

> <PUBCHEM_BOND_UDEF_STEREO_COUNT>
0

> <PUBCHEM_ISOTOPIC_ATOM_COUNT>
0

> <PUBCHEM_COMPONENT_COUNT>
1

> <PUBCHEM_CACTVS_TAUTO_COUNT>
4

> <PUBCHEM_CONFORMER_ID>
00B5536B00000002

> <PUBCHEM_MMFF94_ENERGY>
95.1078

> <PUBCHEM_FEATURE_SELFOVERLAP>
61.617

> <PUBCHEM_SHAPE_FINGERPRINT>
10 15 18186805777388288925
10533779 47 17822016350216836443
10906281 52 18202007641949141887
10951579 204 15912506631283704680
11386260 185 13830127313089778458
11408170 132 16343437106565429460
11456790 92 18411699867921052232
11475781 23 16272211881447146796
12236239 1 18337382833908155318
12539765 74 17917720097140569558
14849402 71 18339083799824194913
15183329 4 17275390918947304528
15419008 91 14620498030722488026
15554971 5 18271516580749721927
1577012 14 18340203085295902342
16994733 274 17203612554161783203
1754908 1 16732703861373218017
1818759 1 12540703596205577721
19611394 137 17312829281795241733
20105231 36 17240766151386467898
20554085 129 16343412939064536726
21095123 293 18272378564081822625
21150785 3 8358253756928257130
21781051 124 16226344637414542658
21781055 127 17775293733967478434
22224240 67 18261114067734318859
23081809 10 18271235132033484014
23522609 53 18269566081424114196
23576562 1 14117213089564121785
2747138 104 16443063893696790061
306946 40 14332831678661901106
3092352 35 18201999932752020239
3178227 256 17822014206917203089
3383291 50 15140686903783349737
3711267 37 18273501169400648233
397830 11 16805893999568747205
4073 2 17604427535451692338
4093350 32 16845012312508788526
44802255 64 14692567699037351525
474113 269 14620249486262148156
5385378 56 18130224852624736038
5758199 1 18130790045262585927
5911458 16 18130516288062934513
59682541 35 17313390045694445777
5969126 39 8790891770417989923
9953998 17 17168147850016178641

> <PUBCHEM_SHAPE_MULTIPOLES>
570.19
30.9
2.35
1.67
8.81
1.19
-0.48
13.99
-14.33
-5.38
0.48
2.57
0.07
-5.06

> <PUBCHEM_SHAPE_SELFOVERLAP>
1215.617

> <PUBCHEM_SHAPE_VOLUME>
319

> <PUBCHEM_COORDINATE_TYPE>
2
5
10

$$$$
