38030491
  -OEChem-12032416263D

 63 66  0     1  0  0  0  0  0999 V2000
   -2.6395   -0.0588    0.8806 O   0  0  0  0  0  0  0  0  0  0  0  0
    6.7414   -2.9005    0.9702 O   0  0  0  0  0  0  0  0  0  0  0  0
    2.6860    0.6400   -0.0965 N   0  0  0  0  0  0  0  0  0  0  0  0
   -3.7556    1.6735    1.7511 N   0  0  0  0  0  0  0  0  0  0  0  0
   -4.6776    0.7076    1.3934 N   0  0  0  0  0  0  0  0  0  0  0  0
    5.7635   -1.3410   -0.4433 N   0  0  0  0  0  0  0  0  0  0  0  0
   -6.2218   -3.0563   -0.1700 N   0  0  0  0  0  0  0  0  0  0  0  0
    0.0919    1.4425   -1.3250 C   0  0  1  0  0  0  0  0  0  0  0  0
    1.3824    2.2991   -1.2944 C   0  0  1  0  0  0  0  0  0  0  0  0
   -1.1193    2.2820   -0.8908 C   0  0  0  0  0  0  0  0  0  0  0  0
   -0.9500    2.8590    0.5273 C   0  0  2  0  0  0  0  0  0  0  0  0
   -0.1616    0.8453   -2.7127 C   0  0  0  0  0  0  0  0  0  0  0  0
    0.4143    3.4897    0.7194 C   0  0  0  0  0  0  0  0  0  0  0  0
    1.4407    3.2382   -0.1125 C   0  0  0  0  0  0  0  0  0  0  0  0
    2.6341    1.4142   -1.3058 C   0  0  0  0  0  0  0  0  0  0  0  0
   -1.2157    1.7907    1.5937 C   0  0  0  0  0  0  0  0  0  0  0  0
   -1.0191   -0.4114   -2.6027 C   0  0  0  0  0  0  0  0  0  0  0  0
   -0.8247    1.8749   -3.6219 C   0  0  0  0  0  0  0  0  0  0  0  0
    0.5597    4.4530    1.8645 C   0  0  0  0  0  0  0  0  0  0  0  0
   -2.5800    1.1833    1.4340 C   0  0  0  0  0  0  0  0  0  0  0  0
    3.6982   -0.2636    0.2036 C   0  0  0  0  0  0  0  0  0  0  0  0
   -3.9816   -0.2848    0.8899 C   0  0  0  0  0  0  0  0  0  0  0  0
    3.6878   -0.9820    1.3941 C   0  0  0  0  0  0  0  0  0  0  0  0
    4.7490   -0.4775   -0.6737 C   0  0  0  0  0  0  0  0  0  0  0  0
    4.7139   -1.8797    1.6669 C   0  0  0  0  0  0  0  0  0  0  0  0
   -4.4091   -1.5465    0.3587 C   0  0  0  0  0  0  0  0  0  0  0  0
    5.7193   -2.0214    0.7240 C   0  0  0  0  0  0  0  0  0  0  0  0
   -3.4895   -2.4674   -0.1313 C   0  0  0  0  0  0  0  0  0  0  0  0
   -5.7518   -1.8860    0.3171 C   0  0  0  0  0  0  0  0  0  0  0  0
   -3.9346   -3.6823   -0.6405 C   0  0  0  0  0  0  0  0  0  0  0  0
   -5.2985   -3.9262   -0.6373 C   0  0  0  0  0  0  0  0  0  0  0  0
    7.7476   -3.0079   -0.0299 C   0  0  0  0  0  0  0  0  0  0  0  0
    0.1924    0.6133   -0.6145 H   0  0  0  0  0  0  0  0  0  0  0  0
    1.4226    2.9323   -2.1897 H   0  0  0  0  0  0  0  0  0  0  0  0
   -2.0567    1.7285   -0.9915 H   0  0  0  0  0  0  0  0  0  0  0  0
   -1.2223    3.1582   -1.5457 H   0  0  0  0  0  0  0  0  0  0  0  0
   -1.7077    3.6489    0.6336 H   0  0  0  0  0  0  0  0  0  0  0  0
    0.7816    0.5419   -3.1780 H   0  0  0  0  0  0  0  0  0  0  0  0
    2.3849    3.7555    0.0466 H   0  0  0  0  0  0  0  0  0  0  0  0
    3.5236    2.0540   -1.3784 H   0  0  0  0  0  0  0  0  0  0  0  0
    2.6374    0.7601   -2.1833 H   0  0  0  0  0  0  0  0  0  0  0  0
   -1.1675    2.2316    2.5966 H   0  0  0  0  0  0  0  0  0  0  0  0
   -0.4558    1.0004    1.5673 H   0  0  0  0  0  0  0  0  0  0  0  0
   -2.0098   -0.2031   -2.1872 H   0  0  0  0  0  0  0  0  0  0  0  0
   -0.5356   -1.1623   -1.9687 H   0  0  0  0  0  0  0  0  0  0  0  0
   -1.1661   -0.8616   -3.5907 H   0  0  0  0  0  0  0  0  0  0  0  0
   -1.8740    2.0606   -3.3697 H   0  0  0  0  0  0  0  0  0  0  0  0
   -0.8293    1.4954   -4.6512 H   0  0  0  0  0  0  0  0  0  0  0  0
   -0.2855    2.8264   -3.6469 H   0  0  0  0  0  0  0  0  0  0  0  0
   -0.1873    5.2497    1.7880 H   0  0  0  0  0  0  0  0  0  0  0  0
    1.5464    4.9282    1.8805 H   0  0  0  0  0  0  0  0  0  0  0  0
    0.4266    3.9404    2.8217 H   0  0  0  0  0  0  0  0  0  0  0  0
    1.9719    0.7674    0.6125 H   0  0  0  0  0  0  0  0  0  0  0  0
    2.8862   -0.8516    2.1164 H   0  0  0  0  0  0  0  0  0  0  0  0
    4.8357    0.0405   -1.6230 H   0  0  0  0  0  0  0  0  0  0  0  0
    4.7203   -2.4477    2.5907 H   0  0  0  0  0  0  0  0  0  0  0  0
   -2.4205   -2.2714   -0.1313 H   0  0  0  0  0  0  0  0  0  0  0  0
   -6.5238   -1.2149    0.6825 H   0  0  0  0  0  0  0  0  0  0  0  0
   -3.2362   -4.4152   -1.0279 H   0  0  0  0  0  0  0  0  0  0  0  0
   -5.6966   -4.8587   -1.0235 H   0  0  0  0  0  0  0  0  0  0  0  0
    8.4842   -3.7414    0.3113 H   0  0  0  0  0  0  0  0  0  0  0  0
    8.2639   -2.0526   -0.1719 H   0  0  0  0  0  0  0  0  0  0  0  0
    7.3260   -3.3679   -0.9743 H   0  0  0  0  0  0  0  0  0  0  0  0
  1 20  1  0  0  0  0
  1 22  1  0  0  0  0
  2 27  1  0  0  0  0
  2 32  1  0  0  0  0
  3 15  1  0  0  0  0
  3 21  1  0  0  0  0
  3 53  1  0  0  0  0
  4  5  1  0  0  0  0
  4 20  2  0  0  0  0
  5 22  2  0  0  0  0
  6 24  1  0  0  0  0
  6 27  2  0  0  0  0
  7 29  1  0  0  0  0
  7 31  2  0  0  0  0
  8  9  1  0  0  0  0
  8 10  1  0  0  0  0
  8 12  1  0  0  0  0
  8 33  1  0  0  0  0
  9 14  1  0  0  0  0
  9 15  1  0  0  0  0
  9 34  1  0  0  0  0
 10 11  1  0  0  0  0
 10 35  1  0  0  0  0
 10 36  1  0  0  0  0
 11 13  1  0  0  0  0
 11 16  1  0  0  0  0
 11 37  1  0  0  0  0
 12 17  1  0  0  0  0
 12 18  1  0  0  0  0
 12 38  1  0  0  0  0
 13 14  2  0  0  0  0
 13 19  1  0  0  0  0
 14 39  1  0  0  0  0
 15 40  1  0  0  0  0
 15 41  1  0  0  0  0
 16 20  1  0  0  0  0
 16 42  1  0  0  0  0
 16 43  1  0  0  0  0
 17 44  1  0  0  0  0
 17 45  1  0  0  0  0
 17 46  1  0  0  0  0
 18 47  1  0  0  0  0
 18 48  1  0  0  0  0
 18 49  1  0  0  0  0
 19 50  1  0  0  0  0
 19 51  1  0  0  0  0
 19 52  1  0  0  0  0
 21 23  1  0  0  0  0
 21 24  2  0  0  0  0
 22 26  1  0  0  0  0
 23 25  2  0  0  0  0
 23 54  1  0  0  0  0
 24 55  1  0  0  0  0
 25 27  1  0  0  0  0
 25 56  1  0  0  0  0
 26 28  1  0  0  0  0
 26 29  2  0  0  0  0
 28 30  2  0  0  0  0
 28 57  1  0  0  0  0
 29 58  1  0  0  0  0
 30 31  1  0  0  0  0
 30 59  1  0  0  0  0
 31 60  1  0  0  0  0
 32 61  1  0  0  0  0
 32 62  1  0  0  0  0
 32 63  1  0  0  0  0
M  END
> <PUBCHEM_COMPOUND_CID>
38030491

> <PUBCHEM_CONFORMER_RMSD>
1.2

> <PUBCHEM_CONFORMER_DIVERSEORDER>
1
16
69
21
14
92
30
37
41
90
131
49
153
138
75
84
165
70
123
109
120
102
106
19
46
143
161
135
89
175
8
105
146
107
110
169
121
162
132
142
66
158
125
71
72
177
57
4
172
137
104
96
95
140
141
17
47
86
5
166
167
52
144
160
23
35
60
85
26
40
100
155
51
163
73
164
56
122
43
77
18
50
101
108
58
115
53
152
94
171
145
29
36
81
62
22
25
88
67
97
54
63
111
93
170
45
83
130
133
148
157
48
127
15
154
12
150
149
11
147
118
68
13
119
65
168
136
79
55
156
7
134
10
74
28
176
129
20
114
113
80
31
112
38
126
42
33
98
44
82
61
139
174
159
2
78
24
151
34
128
116
117
178
6
59
87
3
64
173
91
76
9
103
39
99
32
27
124

> <PUBCHEM_MMFF94_PARTIAL_CHARGES>
36
1 -0.28
11 0.14
13 -0.28
14 -0.29
15 0.37
16 0.18
19 0.14
2 -0.36
20 0.3
21 0.1
22 0.43
23 -0.15
24 0.16
25 -0.15
26 0.05
27 0.39
28 -0.15
29 0.16
3 -0.87
30 -0.15
31 0.16
32 0.28
39 0.15
4 -0.34
5 -0.34
53 0.4
54 0.15
55 0.15
56 0.15
57 0.15
58 0.15
59 0.15
6 -0.62
60 0.15
7 -0.62
9 0.14

> <PUBCHEM_EFFECTIVE_ROTOR_COUNT>
8.8

> <PUBCHEM_PHARMACOPHORE_FEATURES>
8
1 3 cation
1 3 donor
1 7 acceptor
3 12 17 18 hydrophobe
5 1 4 5 20 22 rings
6 6 21 23 24 25 27 rings
6 7 26 28 29 30 31 rings
6 8 9 10 11 13 14 rings

> <PUBCHEM_HEAVY_ATOM_COUNT>
32

> <PUBCHEM_ATOM_DEF_STEREO_COUNT>
3

> <PUBCHEM_ATOM_UDEF_STEREO_COUNT>
0

> <PUBCHEM_BOND_DEF_STEREO_COUNT>
0

> <PUBCHEM_BOND_UDEF_STEREO_COUNT>
0

> <PUBCHEM_ISOTOPIC_ATOM_COUNT>
0

> <PUBCHEM_COMPONENT_COUNT>
1

> <PUBCHEM_CACTVS_TAUTO_COUNT>
1

> <PUBCHEM_CONFORMER_ID>
02444C9B00000001

> <PUBCHEM_MMFF94_ENERGY>
84.4753

> <PUBCHEM_FEATURE_SELFOVERLAP>
40.597

> <PUBCHEM_SHAPE_FINGERPRINT>
10622 236 18339360880869552487
11227150 75 17056083549875379535
11497681 19 18334300873135570718
11552529 35 18193835943088316440
11991303 11 16662592278409486095
12166972 35 18115309011537684495
12422481 6 16558761160624049599
12977781 61 18122310671286852505
13103583 49 18342186535205033449
131258 38 18051967310360029286
13533116 47 18121500417384883739
13726171 33 10953727877727839983
13947930 73 17346875663512580030
14028597 1 15474750636291370277
14068700 675 18410016507529989656
14114206 34 15213288704278754901
14537116 161 14925040813799522903
14674994 50 18043243544460667501
14705955 166 16771834238617424369
14950920 106 18059571344025923512
15163728 17 8718832006603698976
15320294 125 18264786367582530497
16728300 4 18342175592092977191
16989713 51 18189335663792821806
18681886 176 16268862902374426493
19304671 126 15213298702925670943
19319366 153 17406554083540005973
20775438 99 17832128799102463723
20775530 9 17894911793848337632
208703 8 18408882957759411275
21033648 29 16128388038188330441
21401589 2 13110956522362953870
25222932 49 16977590647560765703
2838139 119 10231763283862933476
32027 91 18341886450825859305
46194498 28 15360252903096929105
484985 159 18191577554309365838
50080093 196 17825947027019812618
5081480 168 15213307473412295829
6058803 2 18196678369673041225
6201460 15 18123184868540429766
66674814 147 17967817175407064523
7288768 16 12175620698176312749
7970288 3 18410854331011374594

> <PUBCHEM_SHAPE_MULTIPOLES>
621.9
15.06
5.58
2.41
12.92
0.07
-1.91
-25.87
4.34
-1.1
1.07
-0.52
1.79
-2.34

> <PUBCHEM_SHAPE_SELFOVERLAP>
1326.471

> <PUBCHEM_SHAPE_VOLUME>
343.8

> <PUBCHEM_COORDINATE_TYPE>
2
5
10

$$$$
