26743656
  -OEChem-12032416283D

 49 52  0     1  0  0  0  0  0999 V2000
   -2.0601   -5.0683   -1.1096 O   0  0  0  0  0  0  0  0  0  0  0  0
    1.3235   -1.6348    1.9314 O   0  0  0  0  0  0  0  0  0  0  0  0
   -3.9508    4.0245   -0.9416 O   0  0  0  0  0  0  0  0  0  0  0  0
   -1.5853   -1.6164   -0.3153 N   0  0  1  0  0  0  0  0  0  0  0  0
   -3.1202    2.2677    0.3319 N   0  0  0  0  0  0  0  0  0  0  0  0
    1.2845   -0.8081   -0.1498 N   0  0  0  0  0  0  0  0  0  0  0  0
    2.5053   -0.8978    1.7829 N   0  0  0  0  0  0  0  0  0  0  0  0
    4.4817    0.6701    0.7129 N   0  0  0  0  0  0  0  0  0  0  0  0
   -2.3677   -0.5271    0.2638 C   0  0  0  0  0  0  0  0  0  0  0  0
   -0.6650   -2.2500    0.6508 C   0  0  1  0  0  0  0  0  0  0  0  0
   -2.4338   -2.6846   -0.8403 C   0  0  0  0  0  0  0  0  0  0  0  0
   -0.5206   -3.7033    0.1623 C   0  0  0  0  0  0  0  0  0  0  0  0
   -1.4314   -3.8025   -1.0552 C   0  0  1  0  0  0  0  0  0  0  0  0
   -3.2873    0.0846   -0.8010 C   0  0  0  0  0  0  0  0  0  0  0  0
   -1.4329    0.5425    0.8434 C   0  0  0  0  0  0  0  0  0  0  0  0
   -4.0447    1.2874   -0.2415 C   0  0  0  0  0  0  0  0  0  0  0  0
   -2.2273    1.7377    1.3700 C   0  0  0  0  0  0  0  0  0  0  0  0
    0.6637   -1.5302    0.7483 C   0  0  0  0  0  0  0  0  0  0  0  0
   -3.1657    3.5954   -0.0921 C   0  0  0  0  0  0  0  0  0  0  0  0
   -2.1796    4.5421    0.5441 C   0  0  0  0  0  0  0  0  0  0  0  0
    2.4092   -0.4417    0.5305 C   0  0  0  0  0  0  0  0  0  0  0  0
    3.4191    0.3803   -0.0710 C   0  0  0  0  0  0  0  0  0  0  0  0
    3.2722    0.8265   -1.3746 C   0  0  0  0  0  0  0  0  0  0  0  0
    4.2810    1.6209   -1.9080 C   0  0  0  0  0  0  0  0  0  0  0  0
    5.4421    1.4447    0.1603 C   0  0  0  0  0  0  0  0  0  0  0  0
    5.3900    1.9405   -1.1325 C   0  0  0  0  0  0  0  0  0  0  0  0
   -2.9963   -0.9107    1.0806 H   0  0  0  0  0  0  0  0  0  0  0  0
   -1.1198   -2.2851    1.6511 H   0  0  0  0  0  0  0  0  0  0  0  0
   -2.9096   -2.4296   -1.7928 H   0  0  0  0  0  0  0  0  0  0  0  0
   -3.2171   -2.9937   -0.1356 H   0  0  0  0  0  0  0  0  0  0  0  0
    0.5072   -3.9697   -0.1100 H   0  0  0  0  0  0  0  0  0  0  0  0
   -0.8393   -4.4011    0.9468 H   0  0  0  0  0  0  0  0  0  0  0  0
   -0.8621   -3.6435   -1.9792 H   0  0  0  0  0  0  0  0  0  0  0  0
   -4.0305   -0.6365   -1.1580 H   0  0  0  0  0  0  0  0  0  0  0  0
   -2.6957    0.4049   -1.6691 H   0  0  0  0  0  0  0  0  0  0  0  0
   -0.7379    0.9034    0.0749 H   0  0  0  0  0  0  0  0  0  0  0  0
   -0.8609    0.1715    1.6977 H   0  0  0  0  0  0  0  0  0  0  0  0
   -4.6522    1.7403   -1.0314 H   0  0  0  0  0  0  0  0  0  0  0  0
   -4.7271    0.9744    0.5577 H   0  0  0  0  0  0  0  0  0  0  0  0
   -2.8588    1.4349    2.2139 H   0  0  0  0  0  0  0  0  0  0  0  0
   -1.5364    2.4964    1.7419 H   0  0  0  0  0  0  0  0  0  0  0  0
   -1.3596   -5.7400   -1.1707 H   0  0  0  0  0  0  0  0  0  0  0  0
   -1.1563    4.2176    0.3369 H   0  0  0  0  0  0  0  0  0  0  0  0
   -2.3534    4.6015    1.6218 H   0  0  0  0  0  0  0  0  0  0  0  0
   -2.3116    5.5430    0.1218 H   0  0  0  0  0  0  0  0  0  0  0  0
    2.4094    0.5814   -1.9854 H   0  0  0  0  0  0  0  0  0  0  0  0
    4.2033    1.9907   -2.9260 H   0  0  0  0  0  0  0  0  0  0  0  0
    6.2856    1.6652    0.8061 H   0  0  0  0  0  0  0  0  0  0  0  0
    6.1883    2.5582   -1.5275 H   0  0  0  0  0  0  0  0  0  0  0  0
  1 13  1  0  0  0  0
  1 42  1  0  0  0  0
  2  7  1  0  0  0  0
  2 18  1  0  0  0  0
  3 19  2  0  0  0  0
  4  9  1  0  0  0  0
  4 10  1  0  0  0  0
  4 11  1  0  0  0  0
  5 16  1  0  0  0  0
  5 17  1  0  0  0  0
  5 19  1  0  0  0  0
  6 18  2  0  0  0  0
  6 21  1  0  0  0  0
  7 21  2  0  0  0  0
  8 22  1  0  0  0  0
  8 25  2  0  0  0  0
  9 14  1  0  0  0  0
  9 15  1  0  0  0  0
  9 27  1  0  0  0  0
 10 12  1  0  0  0  0
 10 18  1  0  0  0  0
 10 28  1  0  0  0  0
 11 13  1  0  0  0  0
 11 29  1  0  0  0  0
 11 30  1  0  0  0  0
 12 13  1  0  0  0  0
 12 31  1  0  0  0  0
 12 32  1  0  0  0  0
 13 33  1  0  0  0  0
 14 16  1  0  0  0  0
 14 34  1  0  0  0  0
 14 35  1  0  0  0  0
 15 17  1  0  0  0  0
 15 36  1  0  0  0  0
 15 37  1  0  0  0  0
 16 38  1  0  0  0  0
 16 39  1  0  0  0  0
 17 40  1  0  0  0  0
 17 41  1  0  0  0  0
 19 20  1  0  0  0  0
 20 43  1  0  0  0  0
 20 44  1  0  0  0  0
 20 45  1  0  0  0  0
 21 22  1  0  0  0  0
 22 23  2  0  0  0  0
 23 24  1  0  0  0  0
 23 46  1  0  0  0  0
 24 26  2  0  0  0  0
 24 47  1  0  0  0  0
 25 26  1  0  0  0  0
 25 48  1  0  0  0  0
 26 49  1  0  0  0  0
M  END
> <PUBCHEM_COMPOUND_CID>
26743656

> <PUBCHEM_CONFORMER_RMSD>
0.8

> <PUBCHEM_CONFORMER_DIVERSEORDER>
1
85
139
45
77
180
140
75
138
39
182
89
170
156
73
166
42
142
149
152
61
129
127
172
76
154
177
113
173
171
50
106
163
83
60
68
185
53
122
168
176
181
126
110
48
38
151
146
59
57
49
144
184
93
131
91
55
11
123
121
118
79
117
141
125
158
54
150
86
47
178
35
20
6
32
109
67
174
136
70
90
74
120
159
27
43
161
107
102
71
37
162
30
94
88
157
52
44
72
155
153
46
65
133
128
100
183
130
124
23
92
82
97
3
167
34
31
64
179
98
33
112
63
160
25
105
21
14
175
56
81
80
84
119
15
115
134
9
145
132
22
147
186
12
10
104
58
114
108
69
13
40
164
36
19
78
103
135
2
143
18
165
99
4
29
148
62
95
17
26
28
101
137
87
51
116
111
66
96
24
41
5
169
7
8
16

> <PUBCHEM_MMFF94_PARTIAL_CHARGES>
28
1 -0.68
10 0.45
11 0.27
13 0.28
16 0.3
17 0.3
18 0.3
19 0.57
2 -0.02
20 0.06
21 0.46
22 0.36
23 -0.15
24 -0.15
25 0.16
26 -0.15
3 -0.57
4 -0.81
42 0.4
46 0.15
47 0.15
48 0.15
49 0.15
5 -0.66
6 -0.57
7 -0.41
8 -0.62
9 0.27

> <PUBCHEM_EFFECTIVE_ROTOR_COUNT>
6.2

> <PUBCHEM_PHARMACOPHORE_FEATURES>
10
1 1 acceptor
1 1 donor
1 3 acceptor
1 4 cation
1 8 acceptor
3 6 7 21 cation
5 2 6 7 18 21 rings
5 4 10 11 12 13 rings
6 5 9 14 15 16 17 rings
6 8 22 23 24 25 26 rings

> <PUBCHEM_HEAVY_ATOM_COUNT>
26

> <PUBCHEM_ATOM_DEF_STEREO_COUNT>
2

> <PUBCHEM_ATOM_UDEF_STEREO_COUNT>
0

> <PUBCHEM_BOND_DEF_STEREO_COUNT>
0

> <PUBCHEM_BOND_UDEF_STEREO_COUNT>
0

> <PUBCHEM_ISOTOPIC_ATOM_COUNT>
0

> <PUBCHEM_COMPONENT_COUNT>
1

> <PUBCHEM_CACTVS_TAUTO_COUNT>
1

> <PUBCHEM_CONFORMER_ID>
0198136800000001

> <PUBCHEM_MMFF94_ENERGY>
49.6398

> <PUBCHEM_FEATURE_SELFOVERLAP>
50.747

> <PUBCHEM_SHAPE_FINGERPRINT>
10670039 82 18335713727986313980
10871710 139 18408608084532042981
10937287 8 18338799983630839437
11049842 53 18200021838314231250
11477941 20 17839186556225885476
11640471 11 18187081745705359762
12107183 9 18190449477619359266
12173636 292 18412537687449600911
12293681 160 17827620762863468739
12788726 201 18264478650076436403
13617811 41 17981883356494774207
13911987 19 18337939157069554047
14114211 80 18199766764385321289
14251764 75 18195820565302772489
14508225 48 17838327841739021263
14739800 52 18267000921661611792
15064981 113 18343862213223170606
15163728 17 18197227957502519829
15463212 79 18408320012290250730
15575132 122 18335707118047417397
16988056 13 16968293713479436957
16994733 274 15432528123376471815
17818456 19 18339068303834678090
20101258 96 17905056094084441851
20642791 239 18046895254989872855
20739085 24 17545590159113265618
21033650 10 18118145747558286548
21304303 282 18197469935717279582
21860390 5 17258492241515007493
21864079 5 18263085413876730473
22149856 69 17912921679334395209
23366157 5 17689435988963628683
235170 7 17487636323453314596
23557571 272 17986678279901196530
23559900 14 17620186538927169363
245318 6 18042417832450090005
3057174 1 18057040207823383095
312425 83 18195835018657826036
3610482 184 17970371389027496820
38570 142 17459497540460809868
394222 165 18043806489960593563
469060 322 18048622561565390915
474 4 17749389273943901344
5048184 11 18336270046114662312
531348 171 18340783623757975550
550186 7 18200325423718479796
6034566 193 18338811004918309105
6700243 42 17553238731811117502
7808743 9 18411418423140883392
9981440 41 18337107852726395585

> <PUBCHEM_SHAPE_MULTIPOLES>
492.55
9.57
6.03
1.45
13.46
0.48
-0.06
-8.85
2.83
-8.98
1.39
0.9
0.18
-1.85

> <PUBCHEM_SHAPE_SELFOVERLAP>
1054.98

> <PUBCHEM_SHAPE_VOLUME>
271.9

> <PUBCHEM_COORDINATE_TYPE>
2
5
10

$$$$
