51136849
  -OEChem-12032416313D

 61 65  0     1  0  0  0  0  0999 V2000
   -2.7894   -1.5393    2.0589 O   0  0  0  0  0  0  0  0  0  0  0  0
    0.7588    3.5920   -0.8191 O   0  0  0  0  0  0  0  0  0  0  0  0
    0.1165    4.3398    1.2290 O   0  0  0  0  0  0  0  0  0  0  0  0
   -4.6708   -0.7142   -0.9882 N   0  0  1  0  0  0  0  0  0  0  0  0
    4.4668   -0.6835   -0.0902 N   0  0  0  0  0  0  0  0  0  0  0  0
    7.2946   -0.5546   -0.4734 N   0  0  0  0  0  0  0  0  0  0  0  0
   -1.9097   -1.2305    0.0223 N   0  0  0  0  0  0  0  0  0  0  0  0
   -1.4043   -1.4436    2.2434 N   0  0  0  0  0  0  0  0  0  0  0  0
    2.7218   -1.0080    1.4762 N   0  0  0  0  0  0  0  0  0  0  0  0
   -4.4410   -1.4710    0.2586 C   0  0  1  0  0  0  0  0  0  0  0  0
   -4.8945   -2.9063   -0.0658 C   0  0  0  0  0  0  0  0  0  0  0  0
   -5.4189   -2.8446   -1.4934 C   0  0  0  0  0  0  0  0  0  0  0  0
   -5.7723   -1.3831   -1.6808 C   0  0  0  0  0  0  0  0  0  0  0  0
   -4.9439    0.6990   -0.7604 C   0  0  0  0  0  0  0  0  0  0  0  0
   -3.0014   -1.4038    0.7236 C   0  0  0  0  0  0  0  0  0  0  0  0
   -3.6822    1.4801   -0.5061 C   0  0  0  0  0  0  0  0  0  0  0  0
    5.3212   -0.0686    0.9335 C   0  0  0  0  0  0  0  0  0  0  0  0
    5.1316   -1.6405   -0.9800 C   0  0  0  0  0  0  0  0  0  0  0  0
    6.6028    0.4815    0.3033 C   0  0  0  0  0  0  0  0  0  0  0  0
    6.4202   -1.0402   -1.5479 C   0  0  0  0  0  0  0  0  0  0  0  0
   -0.9559   -1.2621    0.9977 C   0  0  0  0  0  0  0  0  0  0  0  0
    3.1040   -0.8292    0.1917 C   0  0  0  0  0  0  0  0  0  0  0  0
   -3.5284    2.1866    0.6868 C   0  0  0  0  0  0  0  0  0  0  0  0
   -2.6673    1.4973   -1.4628 C   0  0  0  0  0  0  0  0  0  0  0  0
    8.5445   -0.0331   -1.0252 C   0  0  0  0  0  0  0  0  0  0  0  0
    0.4366   -1.1107    0.6938 C   0  0  0  0  0  0  0  0  0  0  0  0
    2.2260   -0.7807   -0.8791 C   0  0  0  0  0  0  0  0  0  0  0  0
    0.8684   -0.9248   -0.6148 C   0  0  0  0  0  0  0  0  0  0  0  0
   -2.3596    2.9104    0.9228 C   0  0  0  0  0  0  0  0  0  0  0  0
   -1.4986    2.2211   -1.2268 C   0  0  0  0  0  0  0  0  0  0  0  0
    1.3946   -1.1445    1.6942 C   0  0  0  0  0  0  0  0  0  0  0  0
   -1.3446    2.9276   -0.0340 C   0  0  0  0  0  0  0  0  0  0  0  0
   -0.1256    3.6814    0.2120 C   0  0  0  0  0  0  0  0  0  0  0  0
   -5.0841   -1.0945    1.0666 H   0  0  0  0  0  0  0  0  0  0  0  0
   -5.7070   -3.1979    0.6109 H   0  0  0  0  0  0  0  0  0  0  0  0
   -4.0981   -3.6531    0.0241 H   0  0  0  0  0  0  0  0  0  0  0  0
   -6.2757   -3.5069   -1.6484 H   0  0  0  0  0  0  0  0  0  0  0  0
   -4.6281   -3.1400   -2.1940 H   0  0  0  0  0  0  0  0  0  0  0  0
   -6.7406   -1.1628   -1.2136 H   0  0  0  0  0  0  0  0  0  0  0  0
   -5.8180   -1.1131   -2.7403 H   0  0  0  0  0  0  0  0  0  0  0  0
   -5.6785    0.8469    0.0421 H   0  0  0  0  0  0  0  0  0  0  0  0
   -5.3976    1.1406   -1.6589 H   0  0  0  0  0  0  0  0  0  0  0  0
    5.5667   -0.8116    1.7032 H   0  0  0  0  0  0  0  0  0  0  0  0
    4.7977    0.7612    1.4248 H   0  0  0  0  0  0  0  0  0  0  0  0
    5.3574   -2.5565   -0.4188 H   0  0  0  0  0  0  0  0  0  0  0  0
    4.4895   -1.9285   -1.8201 H   0  0  0  0  0  0  0  0  0  0  0  0
    7.2527    0.8437    1.1091 H   0  0  0  0  0  0  0  0  0  0  0  0
    6.3585    1.3438   -0.3318 H   0  0  0  0  0  0  0  0  0  0  0  0
    6.1707   -0.2269   -2.2428 H   0  0  0  0  0  0  0  0  0  0  0  0
    6.9340   -1.8176   -2.1264 H   0  0  0  0  0  0  0  0  0  0  0  0
   -4.3099    2.1802    1.4418 H   0  0  0  0  0  0  0  0  0  0  0  0
   -2.7748    0.9552   -2.3987 H   0  0  0  0  0  0  0  0  0  0  0  0
    9.0783   -0.8166   -1.5745 H   0  0  0  0  0  0  0  0  0  0  0  0
    8.3790    0.8119   -1.7034 H   0  0  0  0  0  0  0  0  0  0  0  0
    9.2117    0.2959   -0.2208 H   0  0  0  0  0  0  0  0  0  0  0  0
    2.5600   -0.6197   -1.8989 H   0  0  0  0  0  0  0  0  0  0  0  0
    0.1702   -0.8844   -1.4468 H   0  0  0  0  0  0  0  0  0  0  0  0
   -2.2585    3.4532    1.8589 H   0  0  0  0  0  0  0  0  0  0  0  0
   -0.7339    2.2066   -1.9982 H   0  0  0  0  0  0  0  0  0  0  0  0
    1.1408   -1.2850    2.7408 H   0  0  0  0  0  0  0  0  0  0  0  0
    1.5777    4.1026   -0.6428 H   0  0  0  0  0  0  0  0  0  0  0  0
  1  8  1  0  0  0  0
  1 15  1  0  0  0  0
  2 33  1  0  0  0  0
  2 61  1  0  0  0  0
  3 33  2  0  0  0  0
  4 10  1  0  0  0  0
  4 13  1  0  0  0  0
  4 14  1  0  0  0  0
  5 17  1  0  0  0  0
  5 18  1  0  0  0  0
  5 22  1  0  0  0  0
  6 19  1  0  0  0  0
  6 20  1  0  0  0  0
  6 25  1  0  0  0  0
  7 15  2  0  0  0  0
  7 21  1  0  0  0  0
  8 21  2  0  0  0  0
  9 22  2  0  0  0  0
  9 31  1  0  0  0  0
 10 11  1  0  0  0  0
 10 15  1  0  0  0  0
 10 34  1  0  0  0  0
 11 12  1  0  0  0  0
 11 35  1  0  0  0  0
 11 36  1  0  0  0  0
 12 13  1  0  0  0  0
 12 37  1  0  0  0  0
 12 38  1  0  0  0  0
 13 39  1  0  0  0  0
 13 40  1  0  0  0  0
 14 16  1  0  0  0  0
 14 41  1  0  0  0  0
 14 42  1  0  0  0  0
 16 23  2  0  0  0  0
 16 24  1  0  0  0  0
 17 19  1  0  0  0  0
 17 43  1  0  0  0  0
 17 44  1  0  0  0  0
 18 20  1  0  0  0  0
 18 45  1  0  0  0  0
 18 46  1  0  0  0  0
 19 47  1  0  0  0  0
 19 48  1  0  0  0  0
 20 49  1  0  0  0  0
 20 50  1  0  0  0  0
 21 26  1  0  0  0  0
 22 27  1  0  0  0  0
 23 29  1  0  0  0  0
 23 51  1  0  0  0  0
 24 30  2  0  0  0  0
 24 52  1  0  0  0  0
 25 53  1  0  0  0  0
 25 54  1  0  0  0  0
 25 55  1  0  0  0  0
 26 28  1  0  0  0  0
 26 31  2  0  0  0  0
 27 28  2  0  0  0  0
 27 56  1  0  0  0  0
 28 57  1  0  0  0  0
 29 32  2  0  0  0  0
 29 58  1  0  0  0  0
 30 32  1  0  0  0  0
 30 59  1  0  0  0  0
 31 60  1  0  0  0  0
 32 33  1  0  0  0  0
M  END
> <PUBCHEM_COMPOUND_CID>
51136849

> <PUBCHEM_CONFORMER_RMSD>
1

> <PUBCHEM_CONFORMER_DIVERSEORDER>
1
39
26
20
6
24
51
19
40
50
33
53
15
31
45
17
49
13
2
41
52
10
42
29
43
48
21
3
35
4
46
30
5
37
34
25
22
14
12
44
28
7
54
38
18
27
16
9
36
23
32
11
8
47

> <PUBCHEM_MMFF94_PARTIAL_CHARGES>
39
1 -0.02
10 0.45
13 0.27
14 0.41
15 0.3
16 -0.14
17 0.37
18 0.37
19 0.27
2 -0.65
20 0.27
21 0.46
22 0.41
23 -0.15
24 -0.15
25 0.27
26 0.05
27 -0.15
28 -0.15
29 -0.15
3 -0.57
30 -0.15
31 0.16
32 0.09
33 0.63
4 -0.81
5 -0.84
51 0.15
52 0.15
56 0.15
57 0.15
58 0.15
59 0.15
6 -0.81
60 0.15
61 0.5
7 -0.57
8 -0.41
9 -0.62

> <PUBCHEM_EFFECTIVE_ROTOR_COUNT>
8.2

> <PUBCHEM_PHARMACOPHORE_FEATURES>
12
1 2 acceptor
1 3 acceptor
1 4 cation
1 6 cation
3 2 3 33 anion
3 5 9 22 cation
3 7 8 21 cation
5 1 7 8 15 21 rings
5 4 10 11 12 13 rings
6 16 23 24 29 30 32 rings
6 5 6 17 18 19 20 rings
6 9 22 26 27 28 31 rings

> <PUBCHEM_HEAVY_ATOM_COUNT>
33

> <PUBCHEM_ATOM_DEF_STEREO_COUNT>
1

> <PUBCHEM_ATOM_UDEF_STEREO_COUNT>
0

> <PUBCHEM_BOND_DEF_STEREO_COUNT>
0

> <PUBCHEM_BOND_UDEF_STEREO_COUNT>
0

> <PUBCHEM_ISOTOPIC_ATOM_COUNT>
0

> <PUBCHEM_COMPONENT_COUNT>
1

> <PUBCHEM_CACTVS_TAUTO_COUNT>
1

> <PUBCHEM_CONFORMER_ID>
030C495100000001

> <PUBCHEM_MMFF94_ENERGY>
85.252

> <PUBCHEM_FEATURE_SELFOVERLAP>
60.956

> <PUBCHEM_SHAPE_FINGERPRINT>
10032420 55 17750213886190227981
10454371 7 18410017615752858164
10670039 82 18334013866040405562
1100329 8 18410569562448739209
11445158 3 16343697785584832336
11477941 20 18412819200880843364
11524674 6 8142086450924123536
11578080 2 17629779884678970175
12107698 1 18410853291296304166
12788726 201 18260823748575673923
13761468 95 17755584845524639805
13782708 43 17847063251479702894
14931854 50 18113887244075946975
15419008 47 18060696196018872080
15876981 60 18409174298533846997
15968369 153 18201709705033088120
16067689 302 17976260458905036331
17492 54 17969489443210532901
18336668 15 17967258593635674245
20721686 56 18336827619233135936
20775438 99 17476334567923153607
21057603 43 17913490418597431835
21236236 1 18334298639124789998
21344244 246 17907849962247893815
21927370 108 18337405910772451979
23516275 100 18192700375348649684
23559900 14 17896593084829858949
255183 451 18052531364669256567
354706 132 18191313676600501628
392239 28 18408887308835387352
484985 159 13254502134026415141
497634 4 17561370568906232202
5171179 24 18269831068248306809
531348 171 18199189486157282070
5969126 39 18342175574553865686
6608658 132 18334288738866489630

> <PUBCHEM_SHAPE_MULTIPOLES>
631.63
16.92
4.08
1.68
32.5
4.77
0.3
-9.08
-7.53
-5.06
0.22
-0.47
-0.52
-0.1

> <PUBCHEM_SHAPE_SELFOVERLAP>
1369.295

> <PUBCHEM_SHAPE_VOLUME>
345.8

> <PUBCHEM_COORDINATE_TYPE>
2
5
10

$$$$
