11941843
  -OEChem-12032416283D

 57 61  0     1  0  0  0  0  0999 V2000
    3.3239   -2.2899    1.3126 S   0  0  0  0  0  0  0  0  0  0  0  0
    0.0987    0.9736    1.7541 O   0  0  0  0  0  0  0  0  0  0  0  0
   -0.0221    3.7283    0.2935 O   0  0  0  0  0  0  0  0  0  0  0  0
   -4.5760    1.6890    1.0890 O   0  0  0  0  0  0  0  0  0  0  0  0
   -2.5495    1.0886    0.1311 N   0  0  0  0  0  0  0  0  0  0  0  0
    2.4836    2.2172   -0.7146 N   0  0  0  0  0  0  0  0  0  0  0  0
   -4.4530   -0.0894   -0.3985 N   0  0  0  0  0  0  0  0  0  0  0  0
    3.5541    0.1797   -0.2561 N   0  0  0  0  0  0  0  0  0  0  0  0
    3.9318    1.3357   -2.3366 N   0  0  0  0  0  0  0  0  0  0  0  0
   -0.5119    2.4177   -0.0349 C   0  0  1  0  0  0  0  0  0  0  0  0
    0.5172    1.4162    0.4520 C   0  0  1  0  0  0  0  0  0  0  0  0
   -1.7472    2.0996    0.7762 C   0  0  2  0  0  0  0  0  0  0  0  0
    1.7928    2.2184    0.5563 C   0  0  2  0  0  0  0  0  0  0  0  0
   -1.1579    1.5867    2.0781 C   0  0  0  0  0  0  0  0  0  0  0  0
    1.2844    3.6121    0.8762 C   0  0  0  0  0  0  0  0  0  0  0  0
   -5.8536   -0.4479   -0.3713 C   0  0  0  0  0  0  0  0  0  0  0  0
   -6.3058   -1.0052   -1.7252 C   0  0  0  0  0  0  0  0  0  0  0  0
   -6.1475   -1.4362    0.7624 C   0  0  0  0  0  0  0  0  0  0  0  0
   -3.9213    0.9627    0.3424 C   0  0  0  0  0  0  0  0  0  0  0  0
   -5.7445   -2.4002   -2.0006 C   0  0  0  0  0  0  0  0  0  0  0  0
   -5.5864   -2.8305    0.4829 C   0  0  0  0  0  0  0  0  0  0  0  0
   -6.0592   -3.3682   -0.8641 C   0  0  0  0  0  0  0  0  0  0  0  0
    3.3490    1.2143   -1.1143 C   0  0  0  0  0  0  0  0  0  0  0  0
    4.4029   -0.7802   -0.6783 C   0  0  0  0  0  0  0  0  0  0  0  0
    4.7692    0.3403   -2.6949 C   0  0  0  0  0  0  0  0  0  0  0  0
    5.0454   -0.7527   -1.8993 C   0  0  0  0  0  0  0  0  0  0  0  0
    4.6003   -1.8607    0.2508 C   0  0  0  0  0  0  0  0  0  0  0  0
    5.7127   -2.6566    0.4409 C   0  0  0  0  0  0  0  0  0  0  0  0
    5.5130   -3.6254    1.4663 C   0  0  0  0  0  0  0  0  0  0  0  0
    4.2567   -3.5371    2.0242 C   0  0  0  0  0  0  0  0  0  0  0  0
   -0.6633    2.3858   -1.1188 H   0  0  0  0  0  0  0  0  0  0  0  0
    0.5814    0.5294   -0.1866 H   0  0  0  0  0  0  0  0  0  0  0  0
   -2.3731    2.9790    0.9623 H   0  0  0  0  0  0  0  0  0  0  0  0
    2.4592    1.8857    1.3604 H   0  0  0  0  0  0  0  0  0  0  0  0
   -0.9476    2.4137    2.7652 H   0  0  0  0  0  0  0  0  0  0  0  0
   -1.7911    0.8608    2.5972 H   0  0  0  0  0  0  0  0  0  0  0  0
    1.1690    3.7470    1.9574 H   0  0  0  0  0  0  0  0  0  0  0  0
    1.9226    4.4165    0.4974 H   0  0  0  0  0  0  0  0  0  0  0  0
   -2.0874    0.3976   -0.4525 H   0  0  0  0  0  0  0  0  0  0  0  0
    2.2979    2.9561   -1.3833 H   0  0  0  0  0  0  0  0  0  0  0  0
   -6.4190    0.4717   -0.1753 H   0  0  0  0  0  0  0  0  0  0  0  0
   -6.0080   -0.3276   -2.5345 H   0  0  0  0  0  0  0  0  0  0  0  0
   -7.4020   -1.0572   -1.7411 H   0  0  0  0  0  0  0  0  0  0  0  0
   -7.2345   -1.5147    0.8925 H   0  0  0  0  0  0  0  0  0  0  0  0
   -5.7418   -1.0658    1.7114 H   0  0  0  0  0  0  0  0  0  0  0  0
   -4.6595   -2.3472   -2.1479 H   0  0  0  0  0  0  0  0  0  0  0  0
   -6.1685   -2.7849   -2.9353 H   0  0  0  0  0  0  0  0  0  0  0  0
   -5.8951   -3.5160    1.2804 H   0  0  0  0  0  0  0  0  0  0  0  0
   -4.4901   -2.7984    0.5000 H   0  0  0  0  0  0  0  0  0  0  0  0
   -7.1412   -3.5449   -0.8258 H   0  0  0  0  0  0  0  0  0  0  0  0
   -5.5853   -4.3362   -1.0621 H   0  0  0  0  0  0  0  0  0  0  0  0
   -3.8101   -0.6709   -0.9268 H   0  0  0  0  0  0  0  0  0  0  0  0
    5.2260    0.4486   -3.6728 H   0  0  0  0  0  0  0  0  0  0  0  0
    5.7212   -1.5281   -2.2375 H   0  0  0  0  0  0  0  0  0  0  0  0
    6.6344   -2.5557   -0.1188 H   0  0  0  0  0  0  0  0  0  0  0  0
    6.2537   -4.3495    1.7797 H   0  0  0  0  0  0  0  0  0  0  0  0
    3.8422   -4.1449    2.8160 H   0  0  0  0  0  0  0  0  0  0  0  0
  1 27  1  0  0  0  0
  1 30  1  0  0  0  0
  2 11  1  0  0  0  0
  2 14  1  0  0  0  0
  3 10  1  0  0  0  0
  3 15  1  0  0  0  0
  4 19  2  0  0  0  0
  5 12  1  0  0  0  0
  5 19  1  0  0  0  0
  5 39  1  0  0  0  0
  6 13  1  0  0  0  0
  6 23  1  0  0  0  0
  6 40  1  0  0  0  0
  7 16  1  0  0  0  0
  7 19  1  0  0  0  0
  7 52  1  0  0  0  0
  8 23  1  0  0  0  0
  8 24  2  0  0  0  0
  9 23  2  0  0  0  0
  9 25  1  0  0  0  0
 10 11  1  0  0  0  0
 10 12  1  0  0  0  0
 10 31  1  0  0  0  0
 11 13  1  0  0  0  0
 11 32  1  0  0  0  0
 12 14  1  0  0  0  0
 12 33  1  0  0  0  0
 13 15  1  0  0  0  0
 13 34  1  0  0  0  0
 14 35  1  0  0  0  0
 14 36  1  0  0  0  0
 15 37  1  0  0  0  0
 15 38  1  0  0  0  0
 16 17  1  0  0  0  0
 16 18  1  0  0  0  0
 16 41  1  0  0  0  0
 17 20  1  0  0  0  0
 17 42  1  0  0  0  0
 17 43  1  0  0  0  0
 18 21  1  0  0  0  0
 18 44  1  0  0  0  0
 18 45  1  0  0  0  0
 20 22  1  0  0  0  0
 20 46  1  0  0  0  0
 20 47  1  0  0  0  0
 21 22  1  0  0  0  0
 21 48  1  0  0  0  0
 21 49  1  0  0  0  0
 22 50  1  0  0  0  0
 22 51  1  0  0  0  0
 24 26  1  0  0  0  0
 24 27  1  0  0  0  0
 25 26  2  0  0  0  0
 25 53  1  0  0  0  0
 26 54  1  0  0  0  0
 27 28  2  0  0  0  0
 28 29  1  0  0  0  0
 28 55  1  0  0  0  0
 29 30  2  0  0  0  0
 29 56  1  0  0  0  0
 30 57  1  0  0  0  0
M  END
> <PUBCHEM_COMPOUND_CID>
11941843

> <PUBCHEM_CONFORMER_RMSD>
1

> <PUBCHEM_CONFORMER_DIVERSEORDER>
1
398
194
152
373
326
252
378
190
394
65
407
287
46
275
72
18
409
56
380
112
367
150
21
352
300
48
335
406
179
392
404
395
311
235
313
342
108
410
100
424
431
177
220
168
202
207
411
289
110
328
292
349
343
173
74
53
285
45
308
415
428
91
155
55
357
115
385
345
293
379
327
113
372
412
238
144
138
419
297
263
109
116
307
157
240
154
231
330
132
262
139
129
245
217
102
276
23
390
188
103
280
306
386
277
208
135
356
204
340
265
286
59
229
156
169
382
401
244
25
316
98
81
165
348
259
167
67
422
44
376
371
58
247
218
62
294
210
264
315
41
162
304
90
178
273
211
200
17
408
288
370
337
197
3
420
332
421
413
31
63
290
291
107
374
76
296
423
253
29
219
341
414
35
323
136
122
268
377
375
36
405
88
230
195
151
350
22
148
426
362
427
224
101
114
84
79
185
318
78
355
43
121
312
70
205
365
279
366
104
381
360
172
196
11
111
425
99
145
66
303
198
274
60
199
85
182
333
203
106
432
57
126
387
283
256
30
180
143
206
87
251
363
278
5
50
193
319
131
212
255
61
161
93
429
298
396
393
146
120
399
402
16
159
12
239
140
97
317
134
430
92
233
105
130
250
69
32
271
270
52
325
33
254
216
86
334
123
38
322
80
351
184
281
267
403
215
282
158
302
417
358
364
368
174
344
222
369
295
309
388
96
272
314
400
127
321
49
243
336
20
320
124
77
397
34
170
83
232
189
191
299
329
384
418
257
361
209
51
133
338
4
416
73
6
260
383
40
234
347
125
183
389
248
192
82
310
15
227
47
171
213
346
117
39
236
95
64
27
237
142
9
359
181
324
37
68
89
2
141
214
284
305
28
261
160
94
221
241
166
201
8
225
391
119
10
187
13
266
118
223
353
301
331
164
26
71
75
339
186
175
163
42
246
228
128
54
19
153
269
176
137
258
149
249
24
7
354
242
147
14
226

> <PUBCHEM_MMFF94_PARTIAL_CHARGES>
33
1 -0.08
10 0.28
11 0.28
12 0.3
13 0.37
14 0.28
15 0.28
16 0.3
19 0.69
2 -0.56
23 0.72
24 0.36
25 0.16
26 -0.15
27 -0.01
28 -0.15
29 -0.15
3 -0.56
30 -0.11
39 0.37
4 -0.57
40 0.4
5 -0.73
52 0.37
53 0.15
54 0.15
55 0.15
56 0.15
57 0.15
6 -0.87
7 -0.73
8 -0.62
9 -0.62

> <PUBCHEM_EFFECTIVE_ROTOR_COUNT>
9.4

> <PUBCHEM_PHARMACOPHORE_FEATURES>
13
1 2 acceptor
1 3 acceptor
1 4 acceptor
1 5 donor
1 6 donor
1 7 donor
1 8 acceptor
4 6 8 9 23 cation
5 1 27 28 29 30 rings
5 2 10 11 12 14 rings
5 3 10 11 13 15 rings
6 16 17 18 20 21 22 rings
6 8 9 23 24 25 26 rings

> <PUBCHEM_HEAVY_ATOM_COUNT>
30

> <PUBCHEM_ATOM_DEF_STEREO_COUNT>
4

> <PUBCHEM_ATOM_UDEF_STEREO_COUNT>
0

> <PUBCHEM_BOND_DEF_STEREO_COUNT>
0

> <PUBCHEM_BOND_UDEF_STEREO_COUNT>
0

> <PUBCHEM_ISOTOPIC_ATOM_COUNT>
0

> <PUBCHEM_COMPONENT_COUNT>
1

> <PUBCHEM_CACTVS_TAUTO_COUNT>
9

> <PUBCHEM_CONFORMER_ID>
00B637D300000001

> <PUBCHEM_MMFF94_ENERGY>
60.1405

> <PUBCHEM_FEATURE_SELFOVERLAP>
66.73

> <PUBCHEM_SHAPE_FINGERPRINT>
10074138 170 16772127834587845841
10169797 241 18129386054222619930
10622 236 17970624078790946042
11069576 57 18042414547580511670
11227688 84 18115039597023774825
11607047 403 18268412690444083576
11796584 16 18130515136742673461
12422481 6 16343434972536351053
14150023 79 18053098716658376464
14480069 147 18260837011867674827
14951699 99 10663817524653566803
15019793 15 18122061176768763139
15250474 111 18336268942233928539
15684393 108 18042131002429642479
16989378 47 18342176712962721055
17134984 74 18187654660325695158
17138139 8 18409740560234015922
19303781 99 17751081302101863010
20567600 234 10015866475247358761
20567600 247 18408602569424477491
20691028 202 11459241551612076015
20775438 99 18189886707231891602
208703 8 18341050714467381262
21585481 104 17313377904064390007
21585483 132 18199736111472904767
21599406 157 17385723642805146551
21703447 108 18130504248763494296
21792965 302 18192722361353784428
24983565 74 17556573580960594095
25222932 49 18342736360334360964
2748736 6 8142089728221676951
2838139 119 12901820679434577589
38570 142 11959143356564991170
3882209 13 15578348400630871866
397830 11 12031782609117721773
439807 62 18333735715389760307
46194498 28 15359990016728340564
463206 1 18335990774571751954
50009960 94 18268685295601385370
5104073 3 17632585976367340033
59025328 239 17386573432470840740
59682541 52 17894627054543403543
6058803 2 18120396288794735756
6677587 24 16589721290622279174
6697151 62 18059557110758167469
7970288 3 18339638928130103666

> <PUBCHEM_SHAPE_MULTIPOLES>
578.72
18.13
5.06
2.16
18.26
0.96
-0.88
21.15
-5.79
-1.89
2.05
-1.85
0.45
-4.86

> <PUBCHEM_SHAPE_SELFOVERLAP>
1232.49

> <PUBCHEM_SHAPE_VOLUME>
323.3

> <PUBCHEM_COORDINATE_TYPE>
2
5
10

$$$$
