7662775
  -OEChem-12032416233D

 53 57  0     1  0  0  0  0  0999 V2000
    4.0298    0.1152   -2.4593 O   0  0  0  0  0  0  0  0  0  0  0  0
   -0.6220   -2.6064   -0.3949 O   0  0  0  0  0  0  0  0  0  0  0  0
   -1.9138   -3.5585   -3.0550 O   0  0  0  0  0  0  0  0  0  0  0  0
    1.3573   -1.6764    1.3495 N   0  0  2  0  0  0  0  0  0  0  0  0
    2.7195    0.4793   -0.5527 N   0  0  0  0  0  0  0  0  0  0  0  0
   -5.0857    0.7646    0.4490 N   0  0  0  0  0  0  0  0  0  0  0  0
    3.4433   -0.3587    1.7618 C   0  0  1  0  0  0  0  0  0  0  0  0
    1.3145    0.8204    1.5022 C   0  0  2  0  0  0  0  0  0  0  0  0
    2.6317    0.8194    2.2739 C   0  0  0  0  0  0  0  0  0  0  0  0
    2.6771   -1.6773    1.9907 C   0  0  0  0  0  0  0  0  0  0  0  0
    0.5660   -0.5088    1.7622 C   0  0  0  0  0  0  0  0  0  0  0  0
    3.7681   -0.1196    0.2854 C   0  0  0  0  0  0  0  0  0  0  0  0
    1.5477    1.0298    0.0032 C   0  0  0  0  0  0  0  0  0  0  0  0
    0.6400   -2.9187    1.6259 C   0  0  0  0  0  0  0  0  0  0  0  0
    0.6714    1.6984   -0.7908 C   0  0  0  0  0  0  0  0  0  0  0  0
    3.0160    0.5649   -1.9245 C   0  0  0  0  0  0  0  0  0  0  0  0
    0.9414    1.8030   -2.2122 C   0  0  0  0  0  0  0  0  0  0  0  0
    2.0270    1.2692   -2.7717 C   0  0  0  0  0  0  0  0  0  0  0  0
   -0.6741   -2.9823    0.8939 C   0  0  0  0  0  0  0  0  0  0  0  0
   -0.5609    2.3102   -0.2478 C   0  0  0  0  0  0  0  0  0  0  0  0
   -1.9130   -3.3497    1.2881 C   0  0  0  0  0  0  0  0  0  0  0  0
   -1.7341    1.5647   -0.1845 C   0  0  0  0  0  0  0  0  0  0  0  0
   -0.5384    3.6294    0.1947 C   0  0  0  0  0  0  0  0  0  0  0  0
   -1.8930   -2.7376   -0.8570 C   0  0  0  0  0  0  0  0  0  0  0  0
   -2.7250   -3.1917    0.1397 C   0  0  0  0  0  0  0  0  0  0  0  0
   -2.8959    2.1436    0.3261 C   0  0  0  0  0  0  0  0  0  0  0  0
   -1.7001    4.2084    0.7055 C   0  0  0  0  0  0  0  0  0  0  0  0
   -2.8788    3.4655    0.7712 C   0  0  0  0  0  0  0  0  0  0  0  0
   -2.1122   -2.3834   -2.2664 C   0  0  0  0  0  0  0  0  0  0  0  0
   -4.1038    1.3830    0.3938 C   0  0  0  0  0  0  0  0  0  0  0  0
    4.3868   -0.4243    2.3179 H   0  0  0  0  0  0  0  0  0  0  0  0
    0.7113    1.6363    1.9162 H   0  0  0  0  0  0  0  0  0  0  0  0
    3.1734    1.7623    2.1286 H   0  0  0  0  0  0  0  0  0  0  0  0
    2.4459    0.7178    3.3502 H   0  0  0  0  0  0  0  0  0  0  0  0
    3.2771   -2.5059    1.5941 H   0  0  0  0  0  0  0  0  0  0  0  0
    2.5767   -1.8443    3.0720 H   0  0  0  0  0  0  0  0  0  0  0  0
    0.3256   -0.5729    2.8329 H   0  0  0  0  0  0  0  0  0  0  0  0
   -0.3890   -0.4712    1.2315 H   0  0  0  0  0  0  0  0  0  0  0  0
    4.6210    0.5709    0.2257 H   0  0  0  0  0  0  0  0  0  0  0  0
    4.1046   -1.0508   -0.1880 H   0  0  0  0  0  0  0  0  0  0  0  0
    0.4646   -3.0450    2.7023 H   0  0  0  0  0  0  0  0  0  0  0  0
    1.2384   -3.7758    1.2920 H   0  0  0  0  0  0  0  0  0  0  0  0
    0.2220    2.3266   -2.8349 H   0  0  0  0  0  0  0  0  0  0  0  0
    2.2181    1.3478   -3.8352 H   0  0  0  0  0  0  0  0  0  0  0  0
   -2.2174   -3.6895    2.2674 H   0  0  0  0  0  0  0  0  0  0  0  0
   -1.7499    0.5362   -0.5396 H   0  0  0  0  0  0  0  0  0  0  0  0
    0.3730    4.2204    0.1499 H   0  0  0  0  0  0  0  0  0  0  0  0
   -3.7845   -3.3849    0.0522 H   0  0  0  0  0  0  0  0  0  0  0  0
   -1.6867    5.2376    1.0522 H   0  0  0  0  0  0  0  0  0  0  0  0
   -3.7762    3.9309    1.1720 H   0  0  0  0  0  0  0  0  0  0  0  0
   -3.1348   -2.0317   -2.4312 H   0  0  0  0  0  0  0  0  0  0  0  0
   -1.4216   -1.6067   -2.6094 H   0  0  0  0  0  0  0  0  0  0  0  0
   -0.9750   -3.8035   -2.9846 H   0  0  0  0  0  0  0  0  0  0  0  0
  1 16  2  0  0  0  0
  2 19  1  0  0  0  0
  2 24  1  0  0  0  0
  3 29  1  0  0  0  0
  3 53  1  0  0  0  0
  4 10  1  0  0  0  0
  4 11  1  0  0  0  0
  4 14  1  0  0  0  0
  5 12  1  0  0  0  0
  5 13  1  0  0  0  0
  5 16  1  0  0  0  0
  6 30  3  0  0  0  0
  7  9  1  0  0  0  0
  7 10  1  0  0  0  0
  7 12  1  0  0  0  0
  7 31  1  0  0  0  0
  8  9  1  0  0  0  0
  8 11  1  0  0  0  0
  8 13  1  0  0  0  0
  8 32  1  0  0  0  0
  9 33  1  0  0  0  0
  9 34  1  0  0  0  0
 10 35  1  0  0  0  0
 10 36  1  0  0  0  0
 11 37  1  0  0  0  0
 11 38  1  0  0  0  0
 12 39  1  0  0  0  0
 12 40  1  0  0  0  0
 13 15  2  0  0  0  0
 14 19  1  0  0  0  0
 14 41  1  0  0  0  0
 14 42  1  0  0  0  0
 15 17  1  0  0  0  0
 15 20  1  0  0  0  0
 16 18  1  0  0  0  0
 17 18  2  0  0  0  0
 17 43  1  0  0  0  0
 18 44  1  0  0  0  0
 19 21  2  0  0  0  0
 20 22  1  0  0  0  0
 20 23  2  0  0  0  0
 21 25  1  0  0  0  0
 21 45  1  0  0  0  0
 22 26  2  0  0  0  0
 22 46  1  0  0  0  0
 23 27  1  0  0  0  0
 23 47  1  0  0  0  0
 24 25  2  0  0  0  0
 24 29  1  0  0  0  0
 25 48  1  0  0  0  0
 26 28  1  0  0  0  0
 26 30  1  0  0  0  0
 27 28  2  0  0  0  0
 27 49  1  0  0  0  0
 28 50  1  0  0  0  0
 29 51  1  0  0  0  0
 29 52  1  0  0  0  0
M  END
> <PUBCHEM_COMPOUND_CID>
7662775

> <PUBCHEM_CONFORMER_RMSD>
0.8

> <PUBCHEM_CONFORMER_DIVERSEORDER>
1
11
14
23
13
9
2
17
8
22
20
7
6
18
12
15
3
21
16
10
4
5
19

> <PUBCHEM_MMFF94_PARTIAL_CHARGES>
37
1 -0.57
10 0.27
11 0.27
12 0.3
13 -0.03
14 0.45
15 -0.03
16 0.62
17 -0.15
18 -0.14
19 -0.04
2 -0.28
20 0.03
21 -0.15
22 -0.15
23 -0.15
24 -0.04
25 -0.15
26 0.07
27 -0.15
28 -0.15
29 0.46
3 -0.68
30 0.48
4 -0.81
43 0.15
44 0.15
45 0.15
46 0.15
47 0.15
48 0.15
49 0.15
5 -0.47
50 0.15
53 0.4
6 -0.56
8 0.14

> <PUBCHEM_EFFECTIVE_ROTOR_COUNT>
5

> <PUBCHEM_PHARMACOPHORE_FEATURES>
11
1 1 acceptor
1 2 acceptor
1 3 acceptor
1 3 donor
1 4 cation
1 6 acceptor
5 2 19 21 24 25 rings
6 20 22 23 26 27 28 rings
6 4 7 8 9 10 11 rings
6 5 13 15 16 17 18 rings
6 5 7 8 9 12 13 rings

> <PUBCHEM_HEAVY_ATOM_COUNT>
30

> <PUBCHEM_ATOM_DEF_STEREO_COUNT>
2

> <PUBCHEM_ATOM_UDEF_STEREO_COUNT>
0

> <PUBCHEM_BOND_DEF_STEREO_COUNT>
0

> <PUBCHEM_BOND_UDEF_STEREO_COUNT>
0

> <PUBCHEM_ISOTOPIC_ATOM_COUNT>
0

> <PUBCHEM_COMPONENT_COUNT>
1

> <PUBCHEM_CACTVS_TAUTO_COUNT>
1

> <PUBCHEM_CONFORMER_ID>
0074ECB700000001

> <PUBCHEM_MMFF94_ENERGY>
67.0434

> <PUBCHEM_FEATURE_SELFOVERLAP>
57.373

> <PUBCHEM_SHAPE_FINGERPRINT>
10064457 181 18123455099734513696
1100329 8 18336541733145534513
11513181 2 17770200688222189783
11578080 2 17129604559170720648
12156800 1 18122363297499837086
12422481 6 17395557408436537914
12788726 201 18119268369566402902
14114206 34 18117843428530334357
14863182 85 18048040666363689185
19026451 147 16904376362668512863
19319366 153 17896617243635939441
20600515 1 17104191525500873082
21792938 131 17911262541461026127
21860390 5 17261569185928930452
23419403 2 17059792112453384832
3052486 1 18336265733866802771
3380486 77 16737715413797701138
3493558 16 13414730939199245265
35225 105 18130775729556060433
6287921 2 17687471165415063273
6438718 38 18272079543751802523

> <PUBCHEM_SHAPE_MULTIPOLES>
584.83
6.24
5.5
2.7
1.48
2.09
-1.86
-1.69
0.51
5.61
-0.04
-1.98
0.95
-2.59

> <PUBCHEM_SHAPE_SELFOVERLAP>
1290.279

> <PUBCHEM_SHAPE_VOLUME>
306.6

> <PUBCHEM_COORDINATE_TYPE>
2
5
10

$$$$
