25390339
  -OEChem-12032416173D

 52 54  0     1  0  0  0  0  0999 V2000
    4.4906   -0.9591    0.6914 F   0  0  0  0  0  0  0  0  0  0  0  0
   -2.2562    0.8534   -0.6288 O   0  0  0  0  0  0  0  0  0  0  0  0
   -5.3392   -0.4520    0.6714 O   0  0  0  0  0  0  0  0  0  0  0  0
   -5.1453    1.7429   -0.9758 O   0  0  0  0  0  0  0  0  0  0  0  0
    1.7199   -4.4259    0.5228 O   0  0  0  0  0  0  0  0  0  0  0  0
   -1.2051   -1.2411   -1.8774 O   0  0  0  0  0  0  0  0  0  0  0  0
    0.2206    0.9967    0.9836 O   0  0  0  0  0  0  0  0  0  0  0  0
   -0.4381   -2.8799   -0.4227 N   0  0  0  0  0  0  0  0  0  0  0  0
   -0.7580    3.0260    0.4595 N   0  0  0  0  0  0  0  0  0  0  0  0
    1.4887    2.7303    0.0363 N   0  0  0  0  0  0  0  0  0  0  0  0
   -3.1317   -0.2472   -0.3264 C   0  0  2  0  0  0  0  0  0  0  0  0
   -4.1403    0.2930    0.6731 C   0  0  1  0  0  0  0  0  0  0  0  0
   -4.3175    1.7164    0.1863 C   0  0  1  0  0  0  0  0  0  0  0  0
   -2.8995    2.0869   -0.2341 C   0  0  1  0  0  0  0  0  0  0  0  0
   -2.3204   -1.4142    0.2074 C   0  0  0  0  0  0  0  0  0  0  0  0
   -2.0827    2.6971    0.8965 C   0  0  0  0  0  0  0  0  0  0  0  0
   -1.2760   -1.8316   -0.7967 C   0  0  0  0  0  0  0  0  0  0  0  0
    0.6060   -3.3444   -1.3359 C   0  0  0  0  0  0  0  0  0  0  0  0
   -0.5743   -3.6852    0.7957 C   0  0  0  0  0  0  0  0  0  0  0  0
    1.9156   -3.5448   -0.5864 C   0  0  0  0  0  0  0  0  0  0  0  0
    0.7854   -3.8771    1.4558 C   0  0  0  0  0  0  0  0  0  0  0  0
    0.3261    2.1353    0.5341 C   0  0  0  0  0  0  0  0  0  0  0  0
    2.7812    2.1637   -0.0592 C   0  0  0  0  0  0  0  0  0  0  0  0
    3.0028    0.8559    0.3725 C   0  0  0  0  0  0  0  0  0  0  0  0
    3.8338    2.9119   -0.5868 C   0  0  0  0  0  0  0  0  0  0  0  0
    4.2768    0.2964    0.2767 C   0  0  0  0  0  0  0  0  0  0  0  0
    5.1078    2.3522   -0.6825 C   0  0  0  0  0  0  0  0  0  0  0  0
    5.3293    1.0444   -0.2507 C   0  0  0  0  0  0  0  0  0  0  0  0
   -3.6327   -0.5423   -1.2582 H   0  0  0  0  0  0  0  0  0  0  0  0
   -3.7232    0.2901    1.6873 H   0  0  0  0  0  0  0  0  0  0  0  0
   -4.7638    2.3797    0.9326 H   0  0  0  0  0  0  0  0  0  0  0  0
   -2.8902    2.7501   -1.1070 H   0  0  0  0  0  0  0  0  0  0  0  0
   -2.9813   -2.2602    0.4226 H   0  0  0  0  0  0  0  0  0  0  0  0
   -1.7997   -1.1128    1.1238 H   0  0  0  0  0  0  0  0  0  0  0  0
   -2.0023    2.0065    1.7430 H   0  0  0  0  0  0  0  0  0  0  0  0
   -2.5489    3.6225    1.2499 H   0  0  0  0  0  0  0  0  0  0  0  0
   -5.9736    0.0156    1.2409 H   0  0  0  0  0  0  0  0  0  0  0  0
   -5.1998    2.6673   -1.2726 H   0  0  0  0  0  0  0  0  0  0  0  0
   -0.5990    3.9480    0.0650 H   0  0  0  0  0  0  0  0  0  0  0  0
    0.7443   -2.6447   -2.1656 H   0  0  0  0  0  0  0  0  0  0  0  0
    0.2563   -4.2979   -1.7489 H   0  0  0  0  0  0  0  0  0  0  0  0
   -0.9784   -4.6539    0.4790 H   0  0  0  0  0  0  0  0  0  0  0  0
   -1.2745   -3.2473    1.5085 H   0  0  0  0  0  0  0  0  0  0  0  0
    2.6627   -3.9954   -1.2470 H   0  0  0  0  0  0  0  0  0  0  0  0
    2.3185   -2.5917   -0.2239 H   0  0  0  0  0  0  0  0  0  0  0  0
    1.1774   -2.9292    1.8437 H   0  0  0  0  0  0  0  0  0  0  0  0
    0.7005   -4.5736    2.2957 H   0  0  0  0  0  0  0  0  0  0  0  0
    1.4041    3.6865   -0.2991 H   0  0  0  0  0  0  0  0  0  0  0  0
    2.2401    0.2137    0.7896 H   0  0  0  0  0  0  0  0  0  0  0  0
    3.6746    3.9319   -0.9271 H   0  0  0  0  0  0  0  0  0  0  0  0
    5.9274    2.9344   -1.0933 H   0  0  0  0  0  0  0  0  0  0  0  0
    6.3212    0.6083   -0.3250 H   0  0  0  0  0  0  0  0  0  0  0  0
  1 26  1  0  0  0  0
  2 11  1  0  0  0  0
  2 14  1  0  0  0  0
  3 12  1  0  0  0  0
  3 37  1  0  0  0  0
  4 13  1  0  0  0  0
  4 38  1  0  0  0  0
  5 20  1  0  0  0  0
  5 21  1  0  0  0  0
  6 17  2  0  0  0  0
  7 22  2  0  0  0  0
  8 17  1  0  0  0  0
  8 18  1  0  0  0  0
  8 19  1  0  0  0  0
  9 16  1  0  0  0  0
  9 22  1  0  0  0  0
  9 39  1  0  0  0  0
 10 22  1  0  0  0  0
 10 23  1  0  0  0  0
 10 48  1  0  0  0  0
 11 12  1  0  0  0  0
 11 15  1  0  0  0  0
 11 29  1  0  0  0  0
 12 13  1  0  0  0  0
 12 30  1  0  0  0  0
 13 14  1  0  0  0  0
 13 31  1  0  0  0  0
 14 16  1  0  0  0  0
 14 32  1  0  0  0  0
 15 17  1  0  0  0  0
 15 33  1  0  0  0  0
 15 34  1  0  0  0  0
 16 35  1  0  0  0  0
 16 36  1  0  0  0  0
 18 20  1  0  0  0  0
 18 40  1  0  0  0  0
 18 41  1  0  0  0  0
 19 21  1  0  0  0  0
 19 42  1  0  0  0  0
 19 43  1  0  0  0  0
 20 44  1  0  0  0  0
 20 45  1  0  0  0  0
 21 46  1  0  0  0  0
 21 47  1  0  0  0  0
 23 24  2  0  0  0  0
 23 25  1  0  0  0  0
 24 26  1  0  0  0  0
 24 49  1  0  0  0  0
 25 27  2  0  0  0  0
 25 50  1  0  0  0  0
 26 28  2  0  0  0  0
 27 28  1  0  0  0  0
 27 51  1  0  0  0  0
 28 52  1  0  0  0  0
M  END
> <PUBCHEM_COMPOUND_CID>
25390339

> <PUBCHEM_CONFORMER_RMSD>
1.2

> <PUBCHEM_CONFORMER_DIVERSEORDER>
1
105
55
126
159
34
28
41
107
114
135
145
29
84
23
156
20
73
113
153
38
111
160
18
3
30
143
146
103
157
82
117
39
53
44
142
123
161
106
115
97
150
102
120
101
104
92
19
116
56
60
99
54
69
77
76
98
118
85
124
37
32
57
71
94
152
108
31
16
140
131
42
46
130
5
68
21
91
51
70
59
95
50
158
36
133
144
87
74
61
63
45
43
154
109
149
10
47
64
132
65
86
83
88
127
49
22
35
75
141
4
100
138
81
93
72
125
52
11
78
48
79
110
9
58
155
148
66
80
17
15
25
6
12
62
147
119
8
151
129
112
27
128
33
89
24
137
139
26
136
90
67
13
134
40
122
7
2
96
14
121

> <PUBCHEM_MMFF94_PARTIAL_CHARGES>
36
1 -0.19
10 -0.55
11 0.28
12 0.28
13 0.28
14 0.28
15 0.06
16 0.3
17 0.57
18 0.3
19 0.3
2 -0.56
20 0.28
21 0.28
22 0.69
23 0.12
24 -0.15
25 -0.15
26 0.19
27 -0.15
28 -0.15
3 -0.68
37 0.4
38 0.4
39 0.37
4 -0.68
48 0.37
49 0.15
5 -0.56
50 0.15
51 0.15
52 0.15
6 -0.57
7 -0.57
8 -0.66
9 -0.73

> <PUBCHEM_EFFECTIVE_ROTOR_COUNT>
10.2

> <PUBCHEM_PHARMACOPHORE_FEATURES>
13
1 10 donor
1 2 acceptor
1 3 acceptor
1 3 donor
1 4 acceptor
1 4 donor
1 5 acceptor
1 6 acceptor
1 7 acceptor
1 9 donor
5 2 11 12 13 14 rings
6 23 24 25 26 27 28 rings
6 5 8 18 19 20 21 rings

> <PUBCHEM_HEAVY_ATOM_COUNT>
28

> <PUBCHEM_ATOM_DEF_STEREO_COUNT>
4

> <PUBCHEM_ATOM_UDEF_STEREO_COUNT>
0

> <PUBCHEM_BOND_DEF_STEREO_COUNT>
0

> <PUBCHEM_BOND_UDEF_STEREO_COUNT>
0

> <PUBCHEM_ISOTOPIC_ATOM_COUNT>
0

> <PUBCHEM_COMPONENT_COUNT>
1

> <PUBCHEM_CACTVS_TAUTO_COUNT>
3

> <PUBCHEM_CONFORMER_ID>
01836D0300000001

> <PUBCHEM_MMFF94_ENERGY>
68.5426

> <PUBCHEM_FEATURE_SELFOVERLAP>
66.045

> <PUBCHEM_SHAPE_FINGERPRINT>
107951 10 18339087102136373358
11014199 57 17043456912975898286
12156800 1 16300675011943981298
12422481 6 17764836158321692530
12553582 1 17547283866855282378
12788726 201 17977936114314530754
12978246 48 18411133624112349000
13122387 1 16394088012706936230
138480 1 17834114147919025094
13941206 138 18335426789568031022
14028597 1 17702685297441334729
14251757 5 18122916583892587572
14659021 117 17622708131153572440
14790565 3 18411143553666092553
14866123 147 18124036990494229515
15322534 239 18411705396113621862
15420108 30 17917446315368163395
15927050 60 18412828002023284343
16719943 64 18338517547039968130
167882 2 18265608780821243853
17627616 140 18409444760940376191
17859628 97 18411418436015099113
19591789 44 18339641273566765035
19930381 70 18337674088055673139
20775438 99 16187445320604741151
21857420 4 13137923857664244020
3298306 158 18411415081698414613
338550 245 18410856521744674308
3411729 13 18270692952752831057
4058900 60 18335717004582104388
469060 322 13047334519141257922
5265222 85 18265063598699497204

> <PUBCHEM_SHAPE_MULTIPOLES>
518.79
9.95
5.96
1.12
3.04
6.38
0.13
-8.24
0.54
1.77
-0.56
-0.23
0.64
-0.53

> <PUBCHEM_SHAPE_SELFOVERLAP>
1088.952

> <PUBCHEM_SHAPE_VOLUME>
291.2

> <PUBCHEM_COORDINATE_TYPE>
2
5
10

$$$$
