7165083
  -OEChem-12032416123D

 52 55  0     1  0  0  0  0  0999 V2000
   -1.1663   -0.4896   -0.4761 O   0  0  0  0  0  0  0  0  0  0  0  0
   -4.0578   -0.5331   -1.5960 O   0  0  0  0  0  0  0  0  0  0  0  0
    1.0274    3.6611   -0.1957 O   0  0  0  0  0  0  0  0  0  0  0  0
    4.9037   -0.9802   -1.3753 O   0  0  0  0  0  0  0  0  0  0  0  0
   -7.9061   -3.4136   -0.4859 O   0  0  0  0  0  0  0  0  0  0  0  0
   -7.4901   -2.2718    1.4345 O   0  0  0  0  0  0  0  0  0  0  0  0
   -3.4804    0.7066    0.2707 N   0  0  0  0  0  0  0  0  0  0  0  0
   -1.1527    3.4697    0.3641 N   0  0  0  0  0  0  0  0  0  0  0  0
    0.0208    1.5377   -0.3614 N   0  0  0  0  0  0  0  0  0  0  0  0
   -2.3744    2.7393    0.5279 C   0  0  1  0  0  0  0  0  0  0  0  0
   -2.4592    1.5296   -0.3786 C   0  0  1  0  0  0  0  0  0  0  0  0
   -2.5801    2.1463    1.9213 C   0  0  0  0  0  0  0  0  0  0  0  0
   -3.6574    1.0975    1.6705 C   0  0  0  0  0  0  0  0  0  0  0  0
   -1.1521    0.7417   -0.4060 C   0  0  0  0  0  0  0  0  0  0  0  0
   -4.2372   -0.2299   -0.4155 C   0  0  0  0  0  0  0  0  0  0  0  0
    0.0442    2.9260   -0.0595 C   0  0  0  0  0  0  0  0  0  0  0  0
   -5.3298   -0.8929    0.3845 C   0  0  0  0  0  0  0  0  0  0  0  0
    1.2872    0.8844   -0.6249 C   0  0  0  0  0  0  0  0  0  0  0  0
   -6.0728   -1.8874   -0.4847 C   0  0  0  0  0  0  0  0  0  0  0  0
    1.3285   -0.2126   -1.4748 C   0  0  0  0  0  0  0  0  0  0  0  0
    2.4424    1.3647   -0.0230 C   0  0  0  0  0  0  0  0  0  0  0  0
    2.5477   -0.8411   -1.7275 C   0  0  0  0  0  0  0  0  0  0  0  0
    3.6617    0.7361   -0.2757 C   0  0  0  0  0  0  0  0  0  0  0  0
   -7.2185   -2.5192    0.2666 C   0  0  0  0  0  0  0  0  0  0  0  0
    3.7144   -0.3669   -1.1279 C   0  0  0  0  0  0  0  0  0  0  0  0
    5.7345   -1.2328   -0.2965 C   0  0  0  0  0  0  0  0  0  0  0  0
    5.1939   -1.7649    0.8601 C   0  0  0  0  0  0  0  0  0  0  0  0
    7.0835   -0.9466   -0.4034 C   0  0  0  0  0  0  0  0  0  0  0  0
    6.0307   -2.0195    1.9466 C   0  0  0  0  0  0  0  0  0  0  0  0
    7.9203   -1.2011    0.6832 C   0  0  0  0  0  0  0  0  0  0  0  0
    7.3939   -1.7376    1.8583 C   0  0  0  0  0  0  0  0  0  0  0  0
   -3.1981    3.4312    0.3093 H   0  0  0  0  0  0  0  0  0  0  0  0
   -2.7399    1.7730   -1.4087 H   0  0  0  0  0  0  0  0  0  0  0  0
   -1.6625    1.6705    2.2890 H   0  0  0  0  0  0  0  0  0  0  0  0
   -2.8852    2.8920    2.6615 H   0  0  0  0  0  0  0  0  0  0  0  0
   -3.5593    0.2288    2.3273 H   0  0  0  0  0  0  0  0  0  0  0  0
   -4.6599    1.5234    1.7835 H   0  0  0  0  0  0  0  0  0  0  0  0
   -1.1605    4.4589    0.5930 H   0  0  0  0  0  0  0  0  0  0  0  0
   -4.8870   -1.4031    1.2472 H   0  0  0  0  0  0  0  0  0  0  0  0
   -6.0179   -0.1237    0.7531 H   0  0  0  0  0  0  0  0  0  0  0  0
   -5.3989   -2.6870   -0.8131 H   0  0  0  0  0  0  0  0  0  0  0  0
   -6.4891   -1.3903   -1.3687 H   0  0  0  0  0  0  0  0  0  0  0  0
    0.4691   -0.5743   -2.0288 H   0  0  0  0  0  0  0  0  0  0  0  0
    2.4508    2.1681    0.7053 H   0  0  0  0  0  0  0  0  0  0  0  0
    2.5861   -1.6896   -2.4054 H   0  0  0  0  0  0  0  0  0  0  0  0
    4.5554    1.1316    0.1998 H   0  0  0  0  0  0  0  0  0  0  0  0
   -8.6415   -3.8256    0.0158 H   0  0  0  0  0  0  0  0  0  0  0  0
    4.1406   -2.0155    0.9457 H   0  0  0  0  0  0  0  0  0  0  0  0
    7.4946   -0.5287   -1.3174 H   0  0  0  0  0  0  0  0  0  0  0  0
    5.6220   -2.4423    2.8597 H   0  0  0  0  0  0  0  0  0  0  0  0
    8.9817   -0.9818    0.6142 H   0  0  0  0  0  0  0  0  0  0  0  0
    8.0456   -1.9371    2.7038 H   0  0  0  0  0  0  0  0  0  0  0  0
  1 14  2  0  0  0  0
  2 15  2  0  0  0  0
  3 16  2  0  0  0  0
  4 25  1  0  0  0  0
  4 26  1  0  0  0  0
  5 24  1  0  0  0  0
  5 47  1  0  0  0  0
  6 24  2  0  0  0  0
  7 11  1  0  0  0  0
  7 13  1  0  0  0  0
  7 15  1  0  0  0  0
  8 10  1  0  0  0  0
  8 16  1  0  0  0  0
  8 38  1  0  0  0  0
  9 14  1  0  0  0  0
  9 16  1  0  0  0  0
  9 18  1  0  0  0  0
 10 11  1  0  0  0  0
 10 12  1  0  0  0  0
 10 32  1  0  0  0  0
 11 14  1  0  0  0  0
 11 33  1  0  0  0  0
 12 13  1  0  0  0  0
 12 34  1  0  0  0  0
 12 35  1  0  0  0  0
 13 36  1  0  0  0  0
 13 37  1  0  0  0  0
 15 17  1  0  0  0  0
 17 19  1  0  0  0  0
 17 39  1  0  0  0  0
 17 40  1  0  0  0  0
 18 20  2  0  0  0  0
 18 21  1  0  0  0  0
 19 24  1  0  0  0  0
 19 41  1  0  0  0  0
 19 42  1  0  0  0  0
 20 22  1  0  0  0  0
 20 43  1  0  0  0  0
 21 23  2  0  0  0  0
 21 44  1  0  0  0  0
 22 25  2  0  0  0  0
 22 45  1  0  0  0  0
 23 25  1  0  0  0  0
 23 46  1  0  0  0  0
 26 27  2  0  0  0  0
 26 28  1  0  0  0  0
 27 29  1  0  0  0  0
 27 48  1  0  0  0  0
 28 30  2  0  0  0  0
 28 49  1  0  0  0  0
 29 31  2  0  0  0  0
 29 50  1  0  0  0  0
 30 31  1  0  0  0  0
 30 51  1  0  0  0  0
 31 52  1  0  0  0  0
M  END
> <PUBCHEM_COMPOUND_CID>
7165083

> <PUBCHEM_CONFORMER_RMSD>
1

> <PUBCHEM_CONFORMER_DIVERSEORDER>
1
90
66
12
40
51
83
67
10
26
42
43
81
74
76
58
85
9
75
24
15
65
57
33
6
79
39
80
38
34
73
13
55
48
44
68
7
35
70
41
54
89
45
71
86
22
31
19
61
16
56
46
37
78
87
28
25
63
64
50
82
84
3
18
36
49
8
21
2
20
69
23
60
11
27
52
17
62
14
5
88
32
29
72
59
47
30
53
77
4

> <PUBCHEM_MMFF94_PARTIAL_CHARGES>
41
1 -0.57
10 0.3
11 0.36
13 0.3
14 0.57
15 0.57
16 0.69
17 0.06
18 0.12
19 0.06
2 -0.57
20 -0.15
21 -0.15
22 -0.15
23 -0.15
24 0.66
25 0.08
26 0.08
27 -0.15
28 -0.15
29 -0.15
3 -0.57
30 -0.15
31 -0.15
38 0.37
4 -0.17
43 0.15
44 0.15
45 0.15
46 0.15
47 0.5
48 0.15
49 0.15
5 -0.65
50 0.15
51 0.15
52 0.15
6 -0.57
7 -0.66
8 -0.73
9 -0.24

> <PUBCHEM_EFFECTIVE_ROTOR_COUNT>
8

> <PUBCHEM_PHARMACOPHORE_FEATURES>
12
1 1 acceptor
1 2 acceptor
1 3 acceptor
1 4 acceptor
1 5 acceptor
1 6 acceptor
1 8 donor
3 5 6 24 anion
5 7 10 11 12 13 rings
6 18 20 21 22 23 25 rings
6 26 27 28 29 30 31 rings
6 8 9 10 11 14 16 rings

> <PUBCHEM_HEAVY_ATOM_COUNT>
31

> <PUBCHEM_ATOM_DEF_STEREO_COUNT>
2

> <PUBCHEM_ATOM_UDEF_STEREO_COUNT>
0

> <PUBCHEM_BOND_DEF_STEREO_COUNT>
0

> <PUBCHEM_BOND_UDEF_STEREO_COUNT>
0

> <PUBCHEM_ISOTOPIC_ATOM_COUNT>
0

> <PUBCHEM_COMPONENT_COUNT>
1

> <PUBCHEM_CACTVS_TAUTO_COUNT>
2

> <PUBCHEM_CONFORMER_ID>
006D549B00000001

> <PUBCHEM_MMFF94_ENERGY>
108.404

> <PUBCHEM_FEATURE_SELFOVERLAP>
61.145

> <PUBCHEM_SHAPE_FINGERPRINT>
10254770 206 18340762736836818043
10816530 90 8718565908327520696
11135609 99 18260829341035218638
11136131 41 17334201829149075217
11297750 10 18335974355245004445
11809386 21 18261111838255726609
11963148 33 17835238231318712311
11973863 73 18114469964270078387
12166972 35 17968098650610030757
12218070 45 16414618510406413551
12596602 18 18269832018168555514
12758862 65 18129948982727923146
13540713 5 18269017386937198537
13782708 43 18042403698704085967
14068700 675 18412266164202297833
15064981 113 14635411810815794923
15064981 194 11314323719857863879
15183329 4 13406793303313762372
15188451 53 18408602560803043782
15519825 34 18261377924813236890
15803439 3 14201395002088970089
16993427 108 18334847312296105770
17686467 74 18341043086937545320
17857418 61 18041000579916461880
18603816 31 17604447262172965755
19303781 99 18339916138948218359
19304671 126 14129061464728711207
19377110 9 18335424509668514084
19841028 212 18339363093067743715
20028762 73 18342462542704759518
2026 5 17096079183010100842
20691028 202 10735578212008631194
21130935 74 18198905817333036658
21315759 148 17274547503877851646
21792934 111 17989767800717919265
21987483 16 18338231695533976354
23522609 53 18046100157037255028
23559900 14 12252487543980528620
23569914 152 13047316729861231264
255183 313 17060333045924867775
2747138 104 18059859450284399950
3383291 50 18412263956205096431
3504750 166 17681544836981585928
4058900 60 9871754619734231588
406291 66 18408601487404728411
439807 62 18113338630897705447
4461854 278 17775009020021743606
4760202 70 18187374255486723966
50009960 94 18056752359748883679
5104073 3 18202849859071048025
5718773 13 18335137609367588203
5874358 3 17386268919242289890
59682541 52 14201385076197703314
6201320 221 17532629296391899691
6327066 14 9439409017004230523
96874 4 18113893836761497778

> <PUBCHEM_SHAPE_MULTIPOLES>
587.81
21.6
3.65
1.59
3.23
1.45
0.41
-27.5
6.63
-5.46
0.86
1.07
-0.41
-2

> <PUBCHEM_SHAPE_SELFOVERLAP>
1282.713

> <PUBCHEM_SHAPE_VOLUME>
316.5

> <PUBCHEM_COORDINATE_TYPE>
2
5
10

$$$$
