25338874
  -OEChem-12032416193D

 52 55  0     1  0  0  0  0  0999 V2000
    5.2483    0.9253   -0.1455 F   0  0  0  0  0  0  0  0  0  0  0  0
    3.2883    0.6059    0.7668 F   0  0  0  0  0  0  0  0  0  0  0  0
    3.6051    0.1801   -1.3786 F   0  0  0  0  0  0  0  0  0  0  0  0
   -2.1302   -1.8487    1.2519 O   0  0  0  0  0  0  0  0  0  0  0  0
    3.5850    2.3564   -0.6750 O   0  0  0  0  0  0  0  0  0  0  0  0
   -1.3645    0.6205   -0.5736 N   0  0  1  0  0  0  0  0  0  0  0  0
   -4.8471   -0.3046   -1.6521 N   0  0  0  0  0  0  0  0  0  0  0  0
   -5.4501    0.3423    0.4017 N   0  0  0  0  0  0  0  0  0  0  0  0
    0.0320   -1.0605    1.6030 N   0  0  0  0  0  0  0  0  0  0  0  0
   -1.6679    0.4670    0.8745 C   0  0  1  0  0  0  0  0  0  0  0  0
   -3.1240    0.7927    1.3128 C   0  0  0  0  0  0  0  0  0  0  0  0
   -2.3005   -0.1182   -1.4642 C   0  0  0  0  0  0  0  0  0  0  0  0
   -3.6963   -0.0165   -0.9841 C   0  0  0  0  0  0  0  0  0  0  0  0
   -4.0905    0.3721    0.2721 C   0  0  0  0  0  0  0  0  0  0  0  0
   -1.2924    2.0366   -0.9443 C   0  0  0  0  0  0  0  0  0  0  0  0
   -1.3019   -0.9418    1.2514 C   0  0  0  0  0  0  0  0  0  0  0  0
   -0.0487    2.6926   -0.4178 C   0  0  0  0  0  0  0  0  0  0  0  0
   -5.8776   -0.0721   -0.7749 C   0  0  0  0  0  0  0  0  0  0  0  0
    0.6301   -2.3058    2.0267 C   0  0  0  0  0  0  0  0  0  0  0  0
    1.2058    2.2135   -0.7949 C   0  0  0  0  0  0  0  0  0  0  0  0
   -0.1481    3.7820    0.4477 C   0  0  0  0  0  0  0  0  0  0  0  0
    2.3611    2.8235   -0.3063 C   0  0  0  0  0  0  0  0  0  0  0  0
    1.1848   -3.0851    0.8695 C   0  0  0  0  0  0  0  0  0  0  0  0
    1.0073    4.3921    0.9363 C   0  0  0  0  0  0  0  0  0  0  0  0
    2.2619    3.9128    0.5593 C   0  0  0  0  0  0  0  0  0  0  0  0
    0.3787   -4.0038    0.1972 C   0  0  0  0  0  0  0  0  0  0  0  0
    2.5059   -2.8907    0.4667 C   0  0  0  0  0  0  0  0  0  0  0  0
    0.8938   -4.7280   -0.8781 C   0  0  0  0  0  0  0  0  0  0  0  0
    3.0211   -3.6148   -0.6084 C   0  0  0  0  0  0  0  0  0  0  0  0
    2.2150   -4.5335   -1.2808 C   0  0  0  0  0  0  0  0  0  0  0  0
    3.9154    1.0086   -0.3589 C   0  0  0  0  0  0  0  0  0  0  0  0
   -1.0168    1.1165    1.4746 H   0  0  0  0  0  0  0  0  0  0  0  0
   -3.2258    1.8753    1.4565 H   0  0  0  0  0  0  0  0  0  0  0  0
   -3.3666    0.3101    2.2666 H   0  0  0  0  0  0  0  0  0  0  0  0
   -2.0058   -1.1749   -1.4710 H   0  0  0  0  0  0  0  0  0  0  0  0
   -2.2126    0.2200   -2.5034 H   0  0  0  0  0  0  0  0  0  0  0  0
   -2.1915    2.5872   -0.6406 H   0  0  0  0  0  0  0  0  0  0  0  0
   -1.2424    2.1412   -2.0372 H   0  0  0  0  0  0  0  0  0  0  0  0
   -4.9321   -0.6296   -2.6063 H   0  0  0  0  0  0  0  0  0  0  0  0
   -6.9097   -0.2242   -1.0572 H   0  0  0  0  0  0  0  0  0  0  0  0
    0.6404   -0.2498    1.5351 H   0  0  0  0  0  0  0  0  0  0  0  0
   -0.1151   -2.9025    2.5660 H   0  0  0  0  0  0  0  0  0  0  0  0
    1.4232   -2.0633    2.7430 H   0  0  0  0  0  0  0  0  0  0  0  0
    1.2844    1.3719   -1.4788 H   0  0  0  0  0  0  0  0  0  0  0  0
   -1.1187    4.1649    0.7514 H   0  0  0  0  0  0  0  0  0  0  0  0
    0.9301    5.2398    1.6108 H   0  0  0  0  0  0  0  0  0  0  0  0
    3.1583    4.3918    0.9434 H   0  0  0  0  0  0  0  0  0  0  0  0
   -0.6515   -4.1674    0.5013 H   0  0  0  0  0  0  0  0  0  0  0  0
    3.1436   -2.1767    0.9812 H   0  0  0  0  0  0  0  0  0  0  0  0
    0.2663   -5.4435   -1.4014 H   0  0  0  0  0  0  0  0  0  0  0  0
    4.0495   -3.4624   -0.9226 H   0  0  0  0  0  0  0  0  0  0  0  0
    2.6161   -5.0971   -2.1180 H   0  0  0  0  0  0  0  0  0  0  0  0
  1 31  1  0  0  0  0
  2 31  1  0  0  0  0
  3 31  1  0  0  0  0
  4 16  2  0  0  0  0
  5 22  1  0  0  0  0
  5 31  1  0  0  0  0
  6 10  1  0  0  0  0
  6 12  1  0  0  0  0
  6 15  1  0  0  0  0
  7 13  1  0  0  0  0
  7 18  1  0  0  0  0
  7 39  1  0  0  0  0
  8 14  1  0  0  0  0
  8 18  2  0  0  0  0
  9 16  1  0  0  0  0
  9 19  1  0  0  0  0
  9 41  1  0  0  0  0
 10 11  1  0  0  0  0
 10 16  1  0  0  0  0
 10 32  1  0  0  0  0
 11 14  1  0  0  0  0
 11 33  1  0  0  0  0
 11 34  1  0  0  0  0
 12 13  1  0  0  0  0
 12 35  1  0  0  0  0
 12 36  1  0  0  0  0
 13 14  2  0  0  0  0
 15 17  1  0  0  0  0
 15 37  1  0  0  0  0
 15 38  1  0  0  0  0
 17 20  2  0  0  0  0
 17 21  1  0  0  0  0
 18 40  1  0  0  0  0
 19 23  1  0  0  0  0
 19 42  1  0  0  0  0
 19 43  1  0  0  0  0
 20 22  1  0  0  0  0
 20 44  1  0  0  0  0
 21 24  2  0  0  0  0
 21 45  1  0  0  0  0
 22 25  2  0  0  0  0
 23 26  2  0  0  0  0
 23 27  1  0  0  0  0
 24 25  1  0  0  0  0
 24 46  1  0  0  0  0
 25 47  1  0  0  0  0
 26 28  1  0  0  0  0
 26 48  1  0  0  0  0
 27 29  2  0  0  0  0
 27 49  1  0  0  0  0
 28 30  2  0  0  0  0
 28 50  1  0  0  0  0
 29 30  1  0  0  0  0
 29 51  1  0  0  0  0
 30 52  1  0  0  0  0
M  END
> <PUBCHEM_COMPOUND_CID>
25338874

> <PUBCHEM_CONFORMER_RMSD>
1.2

> <PUBCHEM_CONFORMER_DIVERSEORDER>
1
39
83
64
12
34
87
59
103
71
85
84
47
44
97
78
52
53
80
70
21
11
96
19
41
75
74
49
95
100
89
65
68
30
9
14
45
40
102
101
3
42
66
88
31
37
2
81
92
63
33
38
62
32
91
17
50
35
25
22
58
46
90
76
82
29
57
51
18
60
86
69
36
98
43
93
56
61
13
94
77
7
48
55
73
16
27
6
72
20
28
67
15
54
23
5
4
99
79
8
26
10
24

> <PUBCHEM_MMFF94_PARTIAL_CHARGES>
43
1 -0.34
10 0.33
11 0.18
12 0.45
13 -0.33
14 0.05
15 0.41
16 0.57
17 -0.14
18 0.04
19 0.44
2 -0.34
20 -0.15
21 -0.15
22 0.08
23 -0.14
24 -0.15
25 -0.15
26 -0.15
27 -0.15
28 -0.15
29 -0.15
3 -0.34
30 -0.15
31 1.3
39 0.27
4 -0.57
40 0.15
41 0.37
44 0.15
45 0.15
46 0.15
47 0.15
48 0.15
49 0.15
5 -0.36
50 0.15
51 0.15
52 0.15
6 -0.81
7 0.03
8 -0.57
9 -0.73

> <PUBCHEM_EFFECTIVE_ROTOR_COUNT>
8.8

> <PUBCHEM_PHARMACOPHORE_FEATURES>
10
1 4 acceptor
1 5 acceptor
1 6 cation
1 7 donor
1 9 donor
3 7 8 18 cation
5 7 8 13 14 18 rings
6 17 20 21 22 24 25 rings
6 23 26 27 28 29 30 rings
6 6 10 11 12 13 14 rings

> <PUBCHEM_HEAVY_ATOM_COUNT>
31

> <PUBCHEM_ATOM_DEF_STEREO_COUNT>
1

> <PUBCHEM_ATOM_UDEF_STEREO_COUNT>
0

> <PUBCHEM_BOND_DEF_STEREO_COUNT>
0

> <PUBCHEM_BOND_UDEF_STEREO_COUNT>
0

> <PUBCHEM_ISOTOPIC_ATOM_COUNT>
0

> <PUBCHEM_COMPONENT_COUNT>
1

> <PUBCHEM_CACTVS_TAUTO_COUNT>
4

> <PUBCHEM_CONFORMER_ID>
0182A3FA00000001

> <PUBCHEM_MMFF94_ENERGY>
79.2285

> <PUBCHEM_FEATURE_SELFOVERLAP>
50.845

> <PUBCHEM_SHAPE_FINGERPRINT>
10006869 2 16387622897521475721
11014199 57 17835237848860634470
11513181 2 18126008165422959951
12788726 201 17397543105103668123
1361 2 18412542128229903263
13692114 37 18050837021350414675
14681490 219 18338238150474325772
15484559 13 18118658098064637191
15876981 60 17471309357096299750
15927050 60 17763192345562320344
161222 619 18262255385925200699
1813 80 18125145058044849787
19930381 70 18338518542913530030
20101258 96 17763474915354414275
20764821 26 18337410313193272334
20775438 99 17326847878654943397
21285901 2 17749098976957113869
21344244 246 18410570708529917023
3027735 51 18337115553434594808
3298306 158 18261392290576520759
38695281 34 18338510954123042807
4144715 1 18261685758262835481
463206 1 18411134740493148822
5265222 85 17825686692167005348
5309563 4 18268145357813548078
532947 4 18335706022661607459
57527358 35 15768956570893940776
6287921 2 18198614445770364451
653340 110 17188124038545511320
70251023 43 18122909720355682411
7399639 24 17839714012179403146

> <PUBCHEM_SHAPE_MULTIPOLES>
584.48
8.54
6.89
1.52
7.77
0.16
0.21
2.02
-2.6
-8.6
-0.17
0.42
0.69
0.06

> <PUBCHEM_SHAPE_SELFOVERLAP>
1271.959

> <PUBCHEM_SHAPE_VOLUME>
319.5

> <PUBCHEM_COORDINATE_TYPE>
2
5
10

$$$$
