7674707
  -OEChem-12032416213D

 58 62  0     1  0  0  0  0  0999 V2000
    8.0492   -0.1050    0.8539 F   0  0  0  0  0  0  0  0  0  0  0  0
    6.1266    0.4463    1.7345 F   0  0  0  0  0  0  0  0  0  0  0  0
    6.6434   -1.6793    1.4201 F   0  0  0  0  0  0  0  0  0  0  0  0
    0.7750    2.4739    0.9400 O   0  0  0  0  0  0  0  0  0  0  0  0
   -3.2092   -0.0991    2.8290 O   0  0  0  0  0  0  0  0  0  0  0  0
   -2.3358   -5.0563   -0.8813 O   0  0  0  0  0  0  0  0  0  0  0  0
    6.1914   -0.3708   -0.4006 O   0  0  0  0  0  0  0  0  0  0  0  0
   -3.9344    0.8881    0.8357 N   0  0  0  0  0  0  0  0  0  0  0  0
   -1.2592    2.2284   -0.1743 N   0  0  0  0  0  0  0  0  0  0  0  0
   -3.4256    3.3152    0.6575 C   0  0  1  0  0  0  0  0  0  0  0  0
   -3.4534    1.9196   -1.3708 C   0  0  2  0  0  0  0  0  0  0  0  0
   -3.8372    3.2883   -0.8106 C   0  0  0  0  0  0  0  0  0  0  0  0
   -4.1502    2.2033    1.4381 C   0  0  0  0  0  0  0  0  0  0  0  0
   -1.8997    3.1817    0.7440 C   0  0  0  0  0  0  0  0  0  0  0  0
   -4.2151    0.8164   -0.6078 C   0  0  0  0  0  0  0  0  0  0  0  0
   -1.9606    1.6797   -1.2508 C   0  0  0  0  0  0  0  0  0  0  0  0
   -1.3250    0.9091   -2.1480 C   0  0  0  0  0  0  0  0  0  0  0  0
    0.1135    1.9826    0.0237 C   0  0  0  0  0  0  0  0  0  0  0  0
   -3.4444   -0.1567    1.6231 C   0  0  0  0  0  0  0  0  0  0  0  0
    0.7871    1.0768   -0.9714 C   0  0  0  0  0  0  0  0  0  0  0  0
    0.0687    0.6013   -1.9995 C   0  0  0  0  0  0  0  0  0  0  0  0
   -3.1555   -1.4368    0.9678 C   0  0  0  0  0  0  0  0  0  0  0  0
    2.2021    0.6983   -0.8216 C   0  0  0  0  0  0  0  0  0  0  0  0
   -1.8884   -1.6746    0.4412 C   0  0  0  0  0  0  0  0  0  0  0  0
   -4.1488   -2.4087    0.8757 C   0  0  0  0  0  0  0  0  0  0  0  0
    3.1988    1.4710   -1.4184 C   0  0  0  0  0  0  0  0  0  0  0  0
    2.5473   -0.4341   -0.0831 C   0  0  0  0  0  0  0  0  0  0  0  0
   -1.6128   -2.8920   -0.1815 C   0  0  0  0  0  0  0  0  0  0  0  0
   -3.8731   -3.6262    0.2532 C   0  0  0  0  0  0  0  0  0  0  0  0
    4.5392    1.1116   -1.2767 C   0  0  0  0  0  0  0  0  0  0  0  0
    3.8878   -0.7934    0.0586 C   0  0  0  0  0  0  0  0  0  0  0  0
   -2.6051   -3.8678   -0.2754 C   0  0  0  0  0  0  0  0  0  0  0  0
    4.8836   -0.0204   -0.5383 C   0  0  0  0  0  0  0  0  0  0  0  0
   -1.0184   -5.2380   -1.3982 C   0  0  0  0  0  0  0  0  0  0  0  0
    6.7382   -0.4323    0.9121 C   0  0  0  0  0  0  0  0  0  0  0  0
   -3.7141    4.2753    1.1028 H   0  0  0  0  0  0  0  0  0  0  0  0
   -3.7535    1.8836   -2.4260 H   0  0  0  0  0  0  0  0  0  0  0  0
   -3.3372    4.0910   -1.3671 H   0  0  0  0  0  0  0  0  0  0  0  0
   -4.9172    3.4534   -0.9084 H   0  0  0  0  0  0  0  0  0  0  0  0
   -3.8314    2.2076    2.4858 H   0  0  0  0  0  0  0  0  0  0  0  0
   -5.2320    2.3843    1.4288 H   0  0  0  0  0  0  0  0  0  0  0  0
   -1.5938    2.9394    1.7696 H   0  0  0  0  0  0  0  0  0  0  0  0
   -1.4486    4.1574    0.5171 H   0  0  0  0  0  0  0  0  0  0  0  0
   -5.2967    0.9557   -0.7273 H   0  0  0  0  0  0  0  0  0  0  0  0
   -3.9760   -0.1671   -1.0197 H   0  0  0  0  0  0  0  0  0  0  0  0
   -1.8502    0.4588   -2.9838 H   0  0  0  0  0  0  0  0  0  0  0  0
    0.5060   -0.0594   -2.7423 H   0  0  0  0  0  0  0  0  0  0  0  0
   -1.1049   -0.9283    0.5269 H   0  0  0  0  0  0  0  0  0  0  0  0
   -5.1399   -2.2298    1.2841 H   0  0  0  0  0  0  0  0  0  0  0  0
    2.9464    2.3569   -1.9962 H   0  0  0  0  0  0  0  0  0  0  0  0
    1.7822   -1.0475    0.3871 H   0  0  0  0  0  0  0  0  0  0  0  0
   -0.6061   -3.0143   -0.5665 H   0  0  0  0  0  0  0  0  0  0  0  0
   -4.6501   -4.3825    0.1831 H   0  0  0  0  0  0  0  0  0  0  0  0
    5.3108    1.7178   -1.7435 H   0  0  0  0  0  0  0  0  0  0  0  0
    4.1414   -1.6815    0.6307 H   0  0  0  0  0  0  0  0  0  0  0  0
   -0.9813   -6.2367   -1.8454 H   0  0  0  0  0  0  0  0  0  0  0  0
   -0.7972   -4.5216   -2.1968 H   0  0  0  0  0  0  0  0  0  0  0  0
   -0.2670   -5.2161   -0.6016 H   0  0  0  0  0  0  0  0  0  0  0  0
  1 35  1  0  0  0  0
  2 35  1  0  0  0  0
  3 35  1  0  0  0  0
  4 18  2  0  0  0  0
  5 19  2  0  0  0  0
  6 32  1  0  0  0  0
  6 34  1  0  0  0  0
  7 33  1  0  0  0  0
  7 35  1  0  0  0  0
  8 13  1  0  0  0  0
  8 15  1  0  0  0  0
  8 19  1  0  0  0  0
  9 14  1  0  0  0  0
  9 16  1  0  0  0  0
  9 18  1  0  0  0  0
 10 12  1  0  0  0  0
 10 13  1  0  0  0  0
 10 14  1  0  0  0  0
 10 36  1  0  0  0  0
 11 12  1  0  0  0  0
 11 15  1  0  0  0  0
 11 16  1  0  0  0  0
 11 37  1  0  0  0  0
 12 38  1  0  0  0  0
 12 39  1  0  0  0  0
 13 40  1  0  0  0  0
 13 41  1  0  0  0  0
 14 42  1  0  0  0  0
 14 43  1  0  0  0  0
 15 44  1  0  0  0  0
 15 45  1  0  0  0  0
 16 17  2  0  0  0  0
 17 21  1  0  0  0  0
 17 46  1  0  0  0  0
 18 20  1  0  0  0  0
 19 22  1  0  0  0  0
 20 21  2  0  0  0  0
 20 23  1  0  0  0  0
 21 47  1  0  0  0  0
 22 24  2  0  0  0  0
 22 25  1  0  0  0  0
 23 26  2  0  0  0  0
 23 27  1  0  0  0  0
 24 28  1  0  0  0  0
 24 48  1  0  0  0  0
 25 29  2  0  0  0  0
 25 49  1  0  0  0  0
 26 30  1  0  0  0  0
 26 50  1  0  0  0  0
 27 31  2  0  0  0  0
 27 51  1  0  0  0  0
 28 32  2  0  0  0  0
 28 52  1  0  0  0  0
 29 32  1  0  0  0  0
 29 53  1  0  0  0  0
 30 33  2  0  0  0  0
 30 54  1  0  0  0  0
 31 33  1  0  0  0  0
 31 55  1  0  0  0  0
 34 56  1  0  0  0  0
 34 57  1  0  0  0  0
 34 58  1  0  0  0  0
M  END
> <PUBCHEM_COMPOUND_CID>
7674707

> <PUBCHEM_CONFORMER_RMSD>
1

> <PUBCHEM_CONFORMER_DIVERSEORDER>
1
7
4
5
6
2
3
8

> <PUBCHEM_MMFF94_PARTIAL_CHARGES>
43
1 -0.34
11 0.14
13 0.3
14 0.3
15 0.3
16 -0.03
17 -0.15
18 0.62
19 0.54
2 -0.34
20 -0.01
21 -0.15
22 0.09
23 0.03
24 -0.15
25 -0.15
26 -0.15
27 -0.15
28 -0.15
29 -0.15
3 -0.34
30 -0.15
31 -0.15
32 0.08
33 0.08
34 0.28
35 1.3
4 -0.57
46 0.15
47 0.15
48 0.15
49 0.15
5 -0.57
50 0.15
51 0.15
52 0.15
53 0.15
54 0.15
55 0.15
6 -0.36
7 -0.36
8 -0.66
9 -0.47

> <PUBCHEM_EFFECTIVE_ROTOR_COUNT>
7

> <PUBCHEM_PHARMACOPHORE_FEATURES>
9
1 4 acceptor
1 5 acceptor
1 6 acceptor
1 7 acceptor
6 22 24 25 28 29 32 rings
6 23 26 27 30 31 33 rings
6 8 10 11 12 13 15 rings
6 9 10 11 12 14 16 rings
6 9 16 17 18 20 21 rings

> <PUBCHEM_HEAVY_ATOM_COUNT>
35

> <PUBCHEM_ATOM_DEF_STEREO_COUNT>
2

> <PUBCHEM_ATOM_UDEF_STEREO_COUNT>
0

> <PUBCHEM_BOND_DEF_STEREO_COUNT>
0

> <PUBCHEM_BOND_UDEF_STEREO_COUNT>
0

> <PUBCHEM_ISOTOPIC_ATOM_COUNT>
0

> <PUBCHEM_COMPONENT_COUNT>
1

> <PUBCHEM_CACTVS_TAUTO_COUNT>
1

> <PUBCHEM_CONFORMER_ID>
00751B5300000001

> <PUBCHEM_MMFF94_ENERGY>
116.1869

> <PUBCHEM_FEATURE_SELFOVERLAP>
47.268

> <PUBCHEM_SHAPE_FINGERPRINT>
10305334 12 17458637674880591123
10483366 6 18338223965252564327
10622 236 18042402602806995422
11135609 149 17405686552361113927
11513181 2 18198905808020708687
11524674 6 18336543807435072093
11552529 35 18338805618780815357
12422481 6 18188495675220969358
12633257 1 17985859075203734369
12717326 68 17407655768652757930
12788726 201 18191318258428052038
13004483 165 18193846070584289767
14068700 675 17986107633699047719
14114207 22 16806995551585869227
14395042 24 18126303058939047683
14674994 50 18336534019584621063
14705955 166 17346053211740357699
14844126 61 18408886269484638451
14950920 106 18130231557273907040
15021287 119 17022627464114968132
15250474 111 18261114097440231422
15320294 125 18187087234541974566
16728300 4 18041002821652520843
18927931 339 15285648637965344420
19611394 137 18130785690403248576
20511986 3 17821722811046483048
20775530 9 17693391340068084575
25147074 1 17967824881511576332
3383291 50 18412262835692638887
3504750 166 18409438207569726054
397830 11 18270954765691144248
4073 2 18341326713940693614
4403749 210 18409440385086048436
4409770 3 18408038516323811911
463206 1 17832155183518942579
484985 159 18334005121155052199
5080951 261 18041539396221774308
5085150 59 18338228276544803319
5104073 3 18409724089404168712
9981440 41 18266182721495586481

> <PUBCHEM_SHAPE_MULTIPOLES>
665.02
13.69
5.51
1.83
34.26
7.14
-0.19
1.37
-6.1
-9.02
1.33
-0.32
-0.28
-0.83

> <PUBCHEM_SHAPE_SELFOVERLAP>
1467.238

> <PUBCHEM_SHAPE_VOLUME>
357.4

> <PUBCHEM_COORDINATE_TYPE>
2
5
10

$$$$
