11867436
  -OEChem-12032416373D

 59 62  0     1  0  0  0  0  0999 V2000
   -8.9048   -0.1408   -0.9377 F   0  0  0  0  0  0  0  0  0  0  0  0
   -9.0641   -2.2867   -0.6655 F   0  0  0  0  0  0  0  0  0  0  0  0
   -7.9130   -1.4868   -2.3280 F   0  0  0  0  0  0  0  0  0  0  0  0
    0.3658    1.5911   -1.2470 O   0  0  0  0  0  0  0  0  0  0  0  0
    1.1020    3.7408    0.7951 O   0  0  0  0  0  0  0  0  0  0  0  0
   -1.9241    1.8900    0.2971 O   0  0  0  0  0  0  0  0  0  0  0  0
   -2.1840    0.1637    1.7744 O   0  0  0  0  0  0  0  0  0  0  0  0
    3.4251    1.2978   -0.7188 N   0  0  0  0  0  0  0  0  0  0  0  0
   -3.8090    0.6585    0.1634 N   0  0  0  0  0  0  0  0  0  0  0  0
    8.2673   -2.8264   -0.0874 N   0  0  0  0  0  0  0  0  0  0  0  0
    1.6512    2.4262    0.5586 C   0  0  1  0  0  0  0  0  0  0  0  0
    0.4888    1.5287    0.1848 C   0  0  1  0  0  0  0  0  0  0  0  0
    2.5181    2.4437   -0.6818 C   0  0  2  0  0  0  0  0  0  0  0  0
   -0.6753    2.1988    0.8739 C   0  0  1  0  0  0  0  0  0  0  0  0
    1.4800    2.3181   -1.7875 C   0  0  0  0  0  0  0  0  0  0  0  0
   -0.3298    3.6641    0.7320 C   0  0  0  0  0  0  0  0  0  0  0  0
    4.6624    1.5955   -0.0135 C   0  0  0  0  0  0  0  0  0  0  0  0
    5.6138    0.4287   -0.0329 C   0  0  0  0  0  0  0  0  0  0  0  0
   -2.6147    0.8250    0.8375 C   0  0  0  0  0  0  0  0  0  0  0  0
    6.5401    0.3011   -1.0680 C   0  0  0  0  0  0  0  0  0  0  0  0
    5.5690   -0.5249    0.9843 C   0  0  0  0  0  0  0  0  0  0  0  0
    7.4213   -0.7799   -1.0861 C   0  0  0  0  0  0  0  0  0  0  0  0
    6.4502   -1.6058    0.9662 C   0  0  0  0  0  0  0  0  0  0  0  0
    7.3763   -1.7334   -0.0689 C   0  0  0  0  0  0  0  0  0  0  0  0
   -4.8111   -0.3110    0.3947 C   0  0  0  0  0  0  0  0  0  0  0  0
   -5.9623   -0.3266   -0.3927 C   0  0  0  0  0  0  0  0  0  0  0  0
   -4.6488   -1.2519    1.4116 C   0  0  0  0  0  0  0  0  0  0  0  0
   -6.9514   -1.2831   -0.1631 C   0  0  0  0  0  0  0  0  0  0  0  0
    8.2380   -3.8151    0.9723 C   0  0  0  0  0  0  0  0  0  0  0  0
    9.2333   -2.9681   -1.1586 C   0  0  0  0  0  0  0  0  0  0  0  0
   -5.6378   -2.2083    1.6412 C   0  0  0  0  0  0  0  0  0  0  0  0
   -6.7891   -2.2240    0.8539 C   0  0  0  0  0  0  0  0  0  0  0  0
   -8.1833   -1.2988   -1.0034 C   0  0  0  0  0  0  0  0  0  0  0  0
    2.1577    2.1196    1.4787 H   0  0  0  0  0  0  0  0  0  0  0  0
    0.6224    0.4793    0.4629 H   0  0  0  0  0  0  0  0  0  0  0  0
    3.0651    3.3840   -0.8203 H   0  0  0  0  0  0  0  0  0  0  0  0
   -0.6511    1.9607    1.9463 H   0  0  0  0  0  0  0  0  0  0  0  0
    1.8379    1.8183   -2.6934 H   0  0  0  0  0  0  0  0  0  0  0  0
    1.1104    3.3066   -2.0841 H   0  0  0  0  0  0  0  0  0  0  0  0
   -0.7654    4.2735    1.5295 H   0  0  0  0  0  0  0  0  0  0  0  0
   -0.6643    4.0800   -0.2250 H   0  0  0  0  0  0  0  0  0  0  0  0
    3.6528    1.0778   -1.6888 H   0  0  0  0  0  0  0  0  0  0  0  0
    5.1634    2.4646   -0.4603 H   0  0  0  0  0  0  0  0  0  0  0  0
    4.4623    1.8652    1.0311 H   0  0  0  0  0  0  0  0  0  0  0  0
    6.5833    1.0367   -1.8669 H   0  0  0  0  0  0  0  0  0  0  0  0
    4.8504   -0.4370    1.7950 H   0  0  0  0  0  0  0  0  0  0  0  0
   -3.9930    1.3127   -0.5933 H   0  0  0  0  0  0  0  0  0  0  0  0
    8.1226   -0.8343   -1.9129 H   0  0  0  0  0  0  0  0  0  0  0  0
    6.3749   -2.3207    1.7795 H   0  0  0  0  0  0  0  0  0  0  0  0
   -6.0926    0.4058   -1.1862 H   0  0  0  0  0  0  0  0  0  0  0  0
   -3.7857   -1.3019    2.0609 H   0  0  0  0  0  0  0  0  0  0  0  0
    8.4563   -3.3599    1.9448 H   0  0  0  0  0  0  0  0  0  0  0  0
    7.2677   -4.3226    1.0135 H   0  0  0  0  0  0  0  0  0  0  0  0
    8.9909   -4.5962    0.8182 H   0  0  0  0  0  0  0  0  0  0  0  0
    8.7360   -3.0643   -2.1302 H   0  0  0  0  0  0  0  0  0  0  0  0
    9.9253   -2.1190   -1.1823 H   0  0  0  0  0  0  0  0  0  0  0  0
    9.8473   -3.8670   -1.0338 H   0  0  0  0  0  0  0  0  0  0  0  0
   -5.5124   -2.9415    2.4329 H   0  0  0  0  0  0  0  0  0  0  0  0
   -7.5483   -2.9766    1.0482 H   0  0  0  0  0  0  0  0  0  0  0  0
  1 33  1  0  0  0  0
  2 33  1  0  0  0  0
  3 33  1  0  0  0  0
  4 12  1  0  0  0  0
  4 15  1  0  0  0  0
  5 11  1  0  0  0  0
  5 16  1  0  0  0  0
  6 14  1  0  0  0  0
  6 19  1  0  0  0  0
  7 19  2  0  0  0  0
  8 13  1  0  0  0  0
  8 17  1  0  0  0  0
  8 42  1  0  0  0  0
  9 19  1  0  0  0  0
  9 25  1  0  0  0  0
  9 47  1  0  0  0  0
 10 24  1  0  0  0  0
 10 29  1  0  0  0  0
 10 30  1  0  0  0  0
 11 12  1  0  0  0  0
 11 13  1  0  0  0  0
 11 34  1  0  0  0  0
 12 14  1  0  0  0  0
 12 35  1  0  0  0  0
 13 15  1  0  0  0  0
 13 36  1  0  0  0  0
 14 16  1  0  0  0  0
 14 37  1  0  0  0  0
 15 38  1  0  0  0  0
 15 39  1  0  0  0  0
 16 40  1  0  0  0  0
 16 41  1  0  0  0  0
 17 18  1  0  0  0  0
 17 43  1  0  0  0  0
 17 44  1  0  0  0  0
 18 20  2  0  0  0  0
 18 21  1  0  0  0  0
 20 22  1  0  0  0  0
 20 45  1  0  0  0  0
 21 23  2  0  0  0  0
 21 46  1  0  0  0  0
 22 24  2  0  0  0  0
 22 48  1  0  0  0  0
 23 24  1  0  0  0  0
 23 49  1  0  0  0  0
 25 26  1  0  0  0  0
 25 27  2  0  0  0  0
 26 28  2  0  0  0  0
 26 50  1  0  0  0  0
 27 31  1  0  0  0  0
 27 51  1  0  0  0  0
 28 32  1  0  0  0  0
 28 33  1  0  0  0  0
 29 52  1  0  0  0  0
 29 53  1  0  0  0  0
 29 54  1  0  0  0  0
 30 55  1  0  0  0  0
 30 56  1  0  0  0  0
 30 57  1  0  0  0  0
 31 32  2  0  0  0  0
 31 58  1  0  0  0  0
 32 59  1  0  0  0  0
M  END
> <PUBCHEM_COMPOUND_CID>
11867436

> <PUBCHEM_CONFORMER_RMSD>
1

> <PUBCHEM_CONFORMER_DIVERSEORDER>
1
155
16
44
153
76
116
107
85
174
24
114
113
194
176
55
135
151
189
137
169
156
195
117
56
168
167
90
140
34
48
82
125
57
147
188
9
184
139
165
131
122
13
94
180
19
96
179
187
178
63
112
27
134
66
197
171
149
60
191
101
148
22
78
4
40
173
141
38
26
164
2
95
91
126
14
81
138
72
25
93
108
88
6
120
157
110
154
8
54
100
70
73
150
62
186
185
97
3
51
183
190
36
92
124
104
43
130
31
83
42
119
11
102
143
58
79
142
196
115
64
37
160
159
98
45
41
170
68
20
67
59
23
30
182
109
5
172
128
99
33
74
152
7
129
146
35
89
166
28
61
87
162
132
118
161
111
123
175
12
192
47
50
80
136
177
86
106
49
39
198
10
181
193
21
121
145
84
65
71
75
17
158
52
18
144
29
77
15
163
53
103
69
127
46
32
105
133

> <PUBCHEM_MMFF94_PARTIAL_CHARGES>
43
1 -0.34
10 -0.84
11 0.28
12 0.28
13 0.27
14 0.28
15 0.28
16 0.28
17 0.41
18 -0.14
19 0.78
2 -0.34
20 -0.15
21 -0.15
22 -0.15
23 -0.15
24 0.1
25 0.12
26 -0.15
27 -0.15
28 -0.14
29 0.37
3 -0.34
30 0.37
31 -0.15
32 -0.15
33 1.16
4 -0.56
42 0.36
45 0.15
46 0.15
47 0.37
48 0.15
49 0.15
5 -0.56
50 0.15
51 0.15
58 0.15
59 0.15
6 -0.43
7 -0.57
8 -0.9
9 -0.55

> <PUBCHEM_EFFECTIVE_ROTOR_COUNT>
10.2

> <PUBCHEM_PHARMACOPHORE_FEATURES>
11
1 10 cation
1 4 acceptor
1 5 acceptor
1 7 acceptor
1 8 cation
1 8 donor
1 9 donor
5 4 11 12 13 15 rings
5 5 11 12 14 16 rings
6 18 20 21 22 23 24 rings
6 25 26 27 28 31 32 rings

> <PUBCHEM_HEAVY_ATOM_COUNT>
33

> <PUBCHEM_ATOM_DEF_STEREO_COUNT>
4

> <PUBCHEM_ATOM_UDEF_STEREO_COUNT>
0

> <PUBCHEM_BOND_DEF_STEREO_COUNT>
0

> <PUBCHEM_BOND_UDEF_STEREO_COUNT>
0

> <PUBCHEM_ISOTOPIC_ATOM_COUNT>
0

> <PUBCHEM_COMPONENT_COUNT>
1

> <PUBCHEM_CACTVS_TAUTO_COUNT>
2

> <PUBCHEM_CONFORMER_ID>
00B5152C00000001

> <PUBCHEM_MMFF94_ENERGY>
99.4569

> <PUBCHEM_FEATURE_SELFOVERLAP>
56.54

> <PUBCHEM_SHAPE_FINGERPRINT>
10 15 11311788280324777077
10049733 35 18114185211969732524
10055352 69 11242263952513372805
10066227 49 18408885170189223147
10280341 67 8213847121758539254
10673678 19 8862950480788653912
10917259 69 18268991991623707177
10920273 25 7853571348495090478
11135609 201 9799695883329655673
11273773 46 18334296470525235779
11386260 185 16950565548749402764
11476731 50 18411420593291468470
11497681 19 18261682498298047244
117089 54 18269001886858747526
12013929 112 17313372419444231415
12120059 9 18261659408179259128
12124843 1 17530973509685219418
12539765 74 11674873386257042856
12838863 1 18411980239587312014
131240 88 9727627320230376478
13165053 103 18128247896552630279
13248334 5 18124033700476311536
13383668 254 9222693085728933155
13782708 43 18335703879214840773
14340393 91 17313100834896593244
14359421 15 17967529043605721762
14565420 104 12175631659271170628
14617042 71 8214151767835800839
14849402 71 8718825388697424951
14919807 6 17749938995883588557
14931854 50 17530967977613829138
15152005 77 18200592493549732494
15183329 4 16950557805260840569
15198563 99 16732979782514156348
15392192 104 16271931558286991732
15510800 12 18340493279177796630
15519825 34 16272207522345712663
15685185 35 10665238046163267390
16126227 98 9079111155114849449
16991971 28 18410294709498994978
16993427 108 18273493459748968816
1768 4 8935001477919838815
18393751 57 11383839259601775593
19301676 85 18335143111126431610
19841028 212 18409445899728805994
2026 5 18413107256111844231
208703 8 18409728431457440258
212700 22 18408038516256039114
21304304 249 18341897398354761662
21307412 95 17604158094118556187
21344244 78 15697729189096233225
21585481 104 13984935187506121554
21585483 132 17751073619107075026
21639891 77 17917149399014243400
21647283 7 12103302472532959946
22002106 203 18337383843832488898
22899556 10 10375869679925750076
23528940 14 18338795591214542066
23559900 14 18044654442040472417
23569943 247 18413392060231385715
24983565 74 18124872610641905547
25025965 108 18060127757314030887
25242607 90 18060414720677942834
25269216 80 14562821001642211241
32027 91 18268149941034088185
3711267 37 7925643214841536751
3918712 181 8214139638790199886
406291 66 18342176652865099822
4403749 210 10375870771764625541
4408954 87 14405186192294638117
474113 269 18342735217603833367
5109719 28 10519991490665783523
5470011 282 17749399203945433908
5718773 13 18411421700564797080
57303763 176 18201720589076217889
5874358 3 18272928323525435351
6126387 218 17704072889890157761
6204607 403 10665224818318714943
6712543 237 16057164999250866382
96874 4 18412544323211269042
9689198 14 9151175367586721000
9896288 288 17914341173734312768

> <PUBCHEM_SHAPE_MULTIPOLES>
618.88
32.02
4.34
1.51
6.63
0.58
0.29
-42.88
9.12
-5.3
-0.7
1.22
-0.29
-0.91

> <PUBCHEM_SHAPE_SELFOVERLAP>
1329.579

> <PUBCHEM_SHAPE_VOLUME>
344.7

> <PUBCHEM_COORDINATE_TYPE>
2
5
10

$$$$
