56774592
  -OEChem-12032416273D

 55 58  0     1  0  0  0  0  0999 V2000
   -2.3156   -2.5698   -1.4655 O   0  0  0  0  0  0  0  0  0  0  0  0
   -1.8473   -0.6867    2.2693 O   0  0  0  0  0  0  0  0  0  0  0  0
   -5.5872   -2.2326    0.0259 O   0  0  0  0  0  0  0  0  0  0  0  0
    4.2909    1.9172    0.0875 O   0  0  0  0  0  0  0  0  0  0  0  0
   -3.7529   -0.8080    0.1749 N   0  0  0  0  0  0  0  0  0  0  0  0
    4.0910   -0.4249    0.1463 N   0  0  0  0  0  0  0  0  0  0  0  0
   -2.3226   -0.6127   -0.0935 C   0  0  1  0  0  0  0  0  0  0  0  0
   -1.4747   -1.2453    1.0139 C   0  0  1  0  0  0  0  0  0  0  0  0
   -1.9643   -1.1912   -1.4572 C   0  0  0  0  0  0  0  0  0  0  0  0
   -4.3927    0.1059    1.1115 C   0  0  0  0  0  0  0  0  0  0  0  0
   -4.4407   -1.9220   -0.3024 C   0  0  0  0  0  0  0  0  0  0  0  0
   -0.0008   -1.0281    0.7842 C   0  0  0  0  0  0  0  0  0  0  0  0
   -3.7123   -2.7359   -1.3660 C   0  0  0  0  0  0  0  0  0  0  0  0
   -5.1622    1.1853    0.4066 C   0  0  0  0  0  0  0  0  0  0  0  0
    0.5070    0.2677    0.6903 C   0  0  0  0  0  0  0  0  0  0  0  0
    0.8554   -2.1230    0.6654 C   0  0  0  0  0  0  0  0  0  0  0  0
    1.8707    0.4687    0.4777 C   0  0  0  0  0  0  0  0  0  0  0  0
    2.2192   -1.9220    0.4528 C   0  0  0  0  0  0  0  0  0  0  0  0
   -4.5340    2.3848    0.0716 C   0  0  0  0  0  0  0  0  0  0  0  0
   -6.5054    0.9884    0.0867 C   0  0  0  0  0  0  0  0  0  0  0  0
    2.7268   -0.6261    0.3591 C   0  0  0  0  0  0  0  0  0  0  0  0
   -5.2492    3.3876   -0.5833 C   0  0  0  0  0  0  0  0  0  0  0  0
   -7.2206    1.9911   -0.5680 C   0  0  0  0  0  0  0  0  0  0  0  0
   -6.5925    3.1907   -0.9031 C   0  0  0  0  0  0  0  0  0  0  0  0
    4.7750    0.7922    0.0263 C   0  0  0  0  0  0  0  0  0  0  0  0
    6.2444    0.6806   -0.1694 C   0  0  0  0  0  0  0  0  0  0  0  0
    7.0844    1.7127    0.2485 C   0  0  0  0  0  0  0  0  0  0  0  0
    6.7831   -0.4573   -0.7697 C   0  0  0  0  0  0  0  0  0  0  0  0
    8.4634    1.6069    0.0661 C   0  0  0  0  0  0  0  0  0  0  0  0
    8.1618   -0.5632   -0.9522 C   0  0  0  0  0  0  0  0  0  0  0  0
    9.0020    0.4690   -0.5343 C   0  0  0  0  0  0  0  0  0  0  0  0
   -2.1613    0.4710   -0.1336 H   0  0  0  0  0  0  0  0  0  0  0  0
   -1.6922   -2.3175    1.0887 H   0  0  0  0  0  0  0  0  0  0  0  0
   -2.5072   -0.6746   -2.2595 H   0  0  0  0  0  0  0  0  0  0  0  0
   -0.9003   -1.1028   -1.6930 H   0  0  0  0  0  0  0  0  0  0  0  0
   -3.6680    0.5790    1.7772 H   0  0  0  0  0  0  0  0  0  0  0  0
   -5.0711   -0.4643    1.7585 H   0  0  0  0  0  0  0  0  0  0  0  0
   -3.9019   -3.7953   -1.1640 H   0  0  0  0  0  0  0  0  0  0  0  0
   -4.1660   -2.4972   -2.3352 H   0  0  0  0  0  0  0  0  0  0  0  0
   -1.5159    0.2249    2.3255 H   0  0  0  0  0  0  0  0  0  0  0  0
   -0.1394    1.1360    0.7841 H   0  0  0  0  0  0  0  0  0  0  0  0
    0.4740   -3.1382    0.7352 H   0  0  0  0  0  0  0  0  0  0  0  0
    2.1864    1.5005    0.4176 H   0  0  0  0  0  0  0  0  0  0  0  0
    2.8745   -2.7847    0.3616 H   0  0  0  0  0  0  0  0  0  0  0  0
   -3.4887    2.5528    0.3165 H   0  0  0  0  0  0  0  0  0  0  0  0
   -7.0118    0.0631    0.3463 H   0  0  0  0  0  0  0  0  0  0  0  0
   -4.7602    4.3218   -0.8438 H   0  0  0  0  0  0  0  0  0  0  0  0
   -8.2670    1.8385   -0.8157 H   0  0  0  0  0  0  0  0  0  0  0  0
    4.6321   -1.2843    0.1205 H   0  0  0  0  0  0  0  0  0  0  0  0
   -7.1496    3.9715   -1.4126 H   0  0  0  0  0  0  0  0  0  0  0  0
    6.6858    2.6054    0.7232 H   0  0  0  0  0  0  0  0  0  0  0  0
    6.1669   -1.2683   -1.1456 H   0  0  0  0  0  0  0  0  0  0  0  0
    9.1178    2.4101    0.3921 H   0  0  0  0  0  0  0  0  0  0  0  0
    8.5813   -1.4451   -1.4276 H   0  0  0  0  0  0  0  0  0  0  0  0
   10.0754    0.3873   -0.6780 H   0  0  0  0  0  0  0  0  0  0  0  0
  1  9  1  0  0  0  0
  1 13  1  0  0  0  0
  2  8  1  0  0  0  0
  2 40  1  0  0  0  0
  3 11  2  0  0  0  0
  4 25  2  0  0  0  0
  5  7  1  0  0  0  0
  5 10  1  0  0  0  0
  5 11  1  0  0  0  0
  6 21  1  0  0  0  0
  6 25  1  0  0  0  0
  6 49  1  0  0  0  0
  7  8  1  0  0  0  0
  7  9  1  0  0  0  0
  7 32  1  0  0  0  0
  8 12  1  0  0  0  0
  8 33  1  0  0  0  0
  9 34  1  0  0  0  0
  9 35  1  0  0  0  0
 10 14  1  0  0  0  0
 10 36  1  0  0  0  0
 10 37  1  0  0  0  0
 11 13  1  0  0  0  0
 12 15  2  0  0  0  0
 12 16  1  0  0  0  0
 13 38  1  0  0  0  0
 13 39  1  0  0  0  0
 14 19  2  0  0  0  0
 14 20  1  0  0  0  0
 15 17  1  0  0  0  0
 15 41  1  0  0  0  0
 16 18  2  0  0  0  0
 16 42  1  0  0  0  0
 17 21  2  0  0  0  0
 17 43  1  0  0  0  0
 18 21  1  0  0  0  0
 18 44  1  0  0  0  0
 19 22  1  0  0  0  0
 19 45  1  0  0  0  0
 20 23  2  0  0  0  0
 20 46  1  0  0  0  0
 22 24  2  0  0  0  0
 22 47  1  0  0  0  0
 23 24  1  0  0  0  0
 23 48  1  0  0  0  0
 24 50  1  0  0  0  0
 25 26  1  0  0  0  0
 26 27  2  0  0  0  0
 26 28  1  0  0  0  0
 27 29  1  0  0  0  0
 27 51  1  0  0  0  0
 28 30  2  0  0  0  0
 28 52  1  0  0  0  0
 29 31  2  0  0  0  0
 29 53  1  0  0  0  0
 30 31  1  0  0  0  0
 30 54  1  0  0  0  0
 31 55  1  0  0  0  0
M  END
> <PUBCHEM_COMPOUND_CID>
56774592

> <PUBCHEM_CONFORMER_RMSD>
1

> <PUBCHEM_CONFORMER_DIVERSEORDER>
1
30
21
16
27
22
24
28
8
15
14
23
2
5
20
29
31
6
10
11
25
12
7
19
4
3
26
13
17
9
18

> <PUBCHEM_MMFF94_PARTIAL_CHARGES>
47
1 -0.56
10 0.44
11 0.57
12 -0.14
13 0.34
14 -0.14
15 -0.15
16 -0.15
17 -0.15
18 -0.15
19 -0.15
2 -0.68
20 -0.15
21 0.12
22 -0.15
23 -0.15
24 -0.15
25 0.54
26 0.09
27 -0.15
28 -0.15
29 -0.15
3 -0.57
30 -0.15
31 -0.15
4 -0.57
40 0.4
41 0.15
42 0.15
43 0.15
44 0.15
45 0.15
46 0.15
47 0.15
48 0.15
49 0.37
5 -0.66
50 0.15
51 0.15
52 0.15
53 0.15
54 0.15
55 0.15
6 -0.55
7 0.3
8 0.42
9 0.28

> <PUBCHEM_EFFECTIVE_ROTOR_COUNT>
8

> <PUBCHEM_PHARMACOPHORE_FEATURES>
10
1 1 acceptor
1 2 acceptor
1 2 donor
1 3 acceptor
1 4 acceptor
1 6 donor
6 1 5 7 9 11 13 rings
6 12 15 16 17 18 21 rings
6 14 19 20 22 23 24 rings
6 26 27 28 29 30 31 rings

> <PUBCHEM_HEAVY_ATOM_COUNT>
31

> <PUBCHEM_ATOM_DEF_STEREO_COUNT>
2

> <PUBCHEM_ATOM_UDEF_STEREO_COUNT>
0

> <PUBCHEM_BOND_DEF_STEREO_COUNT>
0

> <PUBCHEM_BOND_UDEF_STEREO_COUNT>
0

> <PUBCHEM_ISOTOPIC_ATOM_COUNT>
0

> <PUBCHEM_COMPONENT_COUNT>
1

> <PUBCHEM_CACTVS_TAUTO_COUNT>
4

> <PUBCHEM_CONFORMER_ID>
03624FC000000001

> <PUBCHEM_MMFF94_ENERGY>
99.933

> <PUBCHEM_FEATURE_SELFOVERLAP>
50.748

> <PUBCHEM_SHAPE_FINGERPRINT>
10 15 17822294552850531529
100830 39 18412827971378504745
10669705 176 18412829066678853268
10670039 82 18341044199006617895
11135609 187 18341895208491581442
11315181 36 17346607412687114874
12082328 90 18408885161272533446
12895837 130 18408042935423432469
12988421 55 16370720426841434043
13690498 29 17773587407637763871
13911987 19 17988638542257459817
13914758 101 18409730673514654410
15064981 113 17345468185169594581
15183329 4 17418377974086790626
15289351 153 18337387124807227064
15347591 1 18336826386414504987
15350500 55 17677325005796483797
15419008 91 17845639444256899800
15510800 12 12031491225002794821
15604295 49 18270112539484301944
1577012 14 18261105271198055330
16114785 44 16444172146658991783
16994733 274 18186799171465058504
19302320 297 17895200986671107324
20511986 3 17988918994826355414
21033648 29 18335974372777729856
21223535 225 18408600362133411540
21424621 283 18113338587620589098
21585482 111 17969499308387208237
21756936 100 18113338622323244787
21792961 116 17846503625229367275
23559900 14 16773791550062038218
23576562 1 18341045336714730189
2838139 119 18262241126886471696
4073 2 17967820435308334786
4098825 35 18411136909683611686
44249763 50 18201139040384226704
445580 204 18333730217124642233
44802255 64 18202002127464335255
4516262 110 17822562808213108975
5385378 56 17458341906411331818
563151 97 18408598162936588843
59682541 35 8286195017114976782
6086070 43 17489859458054003138
6201320 215 18336819789502851040
6327066 14 18337666396650539021
636775 72 18334576875807695872
6697151 62 15769482188991431210
9831232 110 18059586763623388430
9953998 17 10737280234786137063

> <PUBCHEM_SHAPE_MULTIPOLES>
604.53
25.66
3.23
1.19
40.12
0.83
0.05
17.88
-6.19
-6.44
-0.91
-0.77
-0.49
0.43

> <PUBCHEM_SHAPE_SELFOVERLAP>
1311.739

> <PUBCHEM_SHAPE_VOLUME>
324.8

> <PUBCHEM_COORDINATE_TYPE>
2
5
10

$$$$
