7052041
  -OEChem-12032416133D

 71 74  0     1  0  0  0  0  0999 V2000
   -5.0838    0.8332    2.9239 F   0  0  0  0  0  0  0  0  0  0  0  0
    3.1672    4.0924    0.0732 O   0  0  0  0  0  0  0  0  0  0  0  0
    0.9075    1.0668   -2.1440 O   0  0  0  0  0  0  0  0  0  0  0  0
   -3.4633    3.1023   -2.0278 O   0  0  0  0  0  0  0  0  0  0  0  0
    2.3810   -3.5097   -2.2577 O   0  0  0  0  0  0  0  0  0  0  0  0
    2.8604   -2.3659   -0.3211 O   0  0  0  0  0  0  0  0  0  0  0  0
    1.2344    2.8119   -0.1009 N   0  0  0  0  0  0  0  0  0  0  0  0
   -1.6168    2.5883   -0.6942 N   0  0  0  0  0  0  0  0  0  0  0  0
    0.7040   -0.6908   -0.6312 N   0  0  0  0  0  0  0  0  0  0  0  0
   -1.8357   -3.4375    1.7823 N   0  0  0  0  0  0  0  0  0  0  0  0
    3.3646    1.8061    0.6377 C   0  0  0  0  0  0  0  0  0  0  0  0
    3.2703    1.6762    2.1597 C   0  0  0  0  0  0  0  0  0  0  0  0
    4.8189    1.9137    0.1740 C   0  0  0  0  0  0  0  0  0  0  0  0
    4.1209    0.5211    2.6810 C   0  0  0  0  0  0  0  0  0  0  0  0
    5.6658    0.7579    0.7000 C   0  0  0  0  0  0  0  0  0  0  0  0
    0.5055    1.5639    0.1590 C   0  0  1  0  0  0  0  0  0  0  0  0
    5.5701    0.6351    2.2177 C   0  0  0  0  0  0  0  0  0  0  0  0
    2.5913    3.0062    0.1782 C   0  0  0  0  0  0  0  0  0  0  0  0
    0.4425    3.9615   -0.5447 C   0  0  0  0  0  0  0  0  0  0  0  0
   -0.9955    1.7801    0.3664 C   0  0  0  0  0  0  0  0  0  0  0  0
   -0.7618    3.5554   -1.3795 C   0  0  0  0  0  0  0  0  0  0  0  0
    0.7354    0.6419   -1.0045 C   0  0  0  0  0  0  0  0  0  0  0  0
   -2.9454    2.4598   -1.1150 C   0  0  0  0  0  0  0  0  0  0  0  0
    0.8752   -1.7782   -1.5675 C   0  0  2  0  0  0  0  0  0  0  0  0
   -3.8072    1.4911   -0.4186 C   0  0  0  0  0  0  0  0  0  0  0  0
   -0.3667   -2.6795   -1.6301 C   0  0  0  0  0  0  0  0  0  0  0  0
    2.1444   -2.5749   -1.2950 C   0  0  0  0  0  0  0  0  0  0  0  0
   -4.0415    1.6238    0.9500 C   0  0  0  0  0  0  0  0  0  0  0  0
   -4.3895    0.4403   -1.1273 C   0  0  0  0  0  0  0  0  0  0  0  0
   -0.6846   -3.4074   -0.3434 C   0  0  0  0  0  0  0  0  0  0  0  0
   -4.8584    0.7058    1.6098 C   0  0  0  0  0  0  0  0  0  0  0  0
   -5.2063   -0.4779   -0.4675 C   0  0  0  0  0  0  0  0  0  0  0  0
   -0.1535   -4.6655   -0.0820 C   0  0  0  0  0  0  0  0  0  0  0  0
   -5.4408   -0.3451    0.9011 C   0  0  0  0  0  0  0  0  0  0  0  0
   -1.5128   -2.8416    0.6125 C   0  0  0  0  0  0  0  0  0  0  0  0
   -0.4626   -5.3104    1.1105 C   0  0  0  0  0  0  0  0  0  0  0  0
    3.5678   -4.2911   -2.0866 C   0  0  0  0  0  0  0  0  0  0  0  0
   -1.3007   -4.6595    2.0015 C   0  0  0  0  0  0  0  0  0  0  0  0
    2.9739    0.8950    0.1790 H   0  0  0  0  0  0  0  0  0  0  0  0
    3.6197    2.6084    2.6250 H   0  0  0  0  0  0  0  0  0  0  0  0
    2.2417    1.5493    2.5072 H   0  0  0  0  0  0  0  0  0  0  0  0
    5.2673    2.8546    0.5190 H   0  0  0  0  0  0  0  0  0  0  0  0
    4.8642    1.9322   -0.9220 H   0  0  0  0  0  0  0  0  0  0  0  0
    4.0862    0.5029    3.7762 H   0  0  0  0  0  0  0  0  0  0  0  0
    3.6979   -0.4290    2.3316 H   0  0  0  0  0  0  0  0  0  0  0  0
    5.3321   -0.1787    0.2363 H   0  0  0  0  0  0  0  0  0  0  0  0
    6.7116    0.9036    0.4070 H   0  0  0  0  0  0  0  0  0  0  0  0
    0.8942    1.0926    1.0615 H   0  0  0  0  0  0  0  0  0  0  0  0
    6.0348    1.5121    2.6850 H   0  0  0  0  0  0  0  0  0  0  0  0
    6.1344   -0.2423    2.5529 H   0  0  0  0  0  0  0  0  0  0  0  0
    1.0764    4.6530   -1.1100 H   0  0  0  0  0  0  0  0  0  0  0  0
    0.1168    4.4858    0.3622 H   0  0  0  0  0  0  0  0  0  0  0  0
   -1.1548    2.3284    1.3028 H   0  0  0  0  0  0  0  0  0  0  0  0
   -1.4995    0.8130    0.4515 H   0  0  0  0  0  0  0  0  0  0  0  0
   -1.3560    4.4426   -1.6273 H   0  0  0  0  0  0  0  0  0  0  0  0
   -0.4556    3.1105   -2.3318 H   0  0  0  0  0  0  0  0  0  0  0  0
    0.6023   -0.9272    0.3514 H   0  0  0  0  0  0  0  0  0  0  0  0
    1.0170   -1.3366   -2.5622 H   0  0  0  0  0  0  0  0  0  0  0  0
   -0.2537   -3.4215   -2.4315 H   0  0  0  0  0  0  0  0  0  0  0  0
   -1.2396   -2.0761   -1.9145 H   0  0  0  0  0  0  0  0  0  0  0  0
   -3.6110    2.4461    1.5152 H   0  0  0  0  0  0  0  0  0  0  0  0
   -4.2115    0.3243   -2.1934 H   0  0  0  0  0  0  0  0  0  0  0  0
   -5.6584   -1.2971   -1.0189 H   0  0  0  0  0  0  0  0  0  0  0  0
    0.4973   -5.1569   -0.7995 H   0  0  0  0  0  0  0  0  0  0  0  0
   -6.0760   -1.0603    1.4152 H   0  0  0  0  0  0  0  0  0  0  0  0
   -1.9592   -1.8629    0.4664 H   0  0  0  0  0  0  0  0  0  0  0  0
   -0.0611   -6.2919    1.3350 H   0  0  0  0  0  0  0  0  0  0  0  0
    4.4512   -3.6456   -2.0973 H   0  0  0  0  0  0  0  0  0  0  0  0
    3.5148   -4.8598   -1.1533 H   0  0  0  0  0  0  0  0  0  0  0  0
    3.6357   -4.9932   -2.9217 H   0  0  0  0  0  0  0  0  0  0  0  0
   -1.5726   -5.1199    2.9455 H   0  0  0  0  0  0  0  0  0  0  0  0
  1 31  1  0  0  0  0
  2 18  2  0  0  0  0
  3 22  2  0  0  0  0
  4 23  2  0  0  0  0
  5 27  1  0  0  0  0
  5 37  1  0  0  0  0
  6 27  2  0  0  0  0
  7 16  1  0  0  0  0
  7 18  1  0  0  0  0
  7 19  1  0  0  0  0
  8 20  1  0  0  0  0
  8 21  1  0  0  0  0
  8 23  1  0  0  0  0
  9 22  1  0  0  0  0
  9 24  1  0  0  0  0
  9 57  1  0  0  0  0
 10 35  1  0  0  0  0
 10 38  2  0  0  0  0
 11 12  1  0  0  0  0
 11 13  1  0  0  0  0
 11 18  1  0  0  0  0
 11 39  1  0  0  0  0
 12 14  1  0  0  0  0
 12 40  1  0  0  0  0
 12 41  1  0  0  0  0
 13 15  1  0  0  0  0
 13 42  1  0  0  0  0
 13 43  1  0  0  0  0
 14 17  1  0  0  0  0
 14 44  1  0  0  0  0
 14 45  1  0  0  0  0
 15 17  1  0  0  0  0
 15 46  1  0  0  0  0
 15 47  1  0  0  0  0
 16 20  1  0  0  0  0
 16 22  1  0  0  0  0
 16 48  1  0  0  0  0
 17 49  1  0  0  0  0
 17 50  1  0  0  0  0
 19 21  1  0  0  0  0
 19 51  1  0  0  0  0
 19 52  1  0  0  0  0
 20 53  1  0  0  0  0
 20 54  1  0  0  0  0
 21 55  1  0  0  0  0
 21 56  1  0  0  0  0
 23 25  1  0  0  0  0
 24 26  1  0  0  0  0
 24 27  1  0  0  0  0
 24 58  1  0  0  0  0
 25 28  2  0  0  0  0
 25 29  1  0  0  0  0
 26 30  1  0  0  0  0
 26 59  1  0  0  0  0
 26 60  1  0  0  0  0
 28 31  1  0  0  0  0
 28 61  1  0  0  0  0
 29 32  2  0  0  0  0
 29 62  1  0  0  0  0
 30 33  1  0  0  0  0
 30 35  2  0  0  0  0
 31 34  2  0  0  0  0
 32 34  1  0  0  0  0
 32 63  1  0  0  0  0
 33 36  2  0  0  0  0
 33 64  1  0  0  0  0
 34 65  1  0  0  0  0
 35 66  1  0  0  0  0
 36 38  1  0  0  0  0
 36 67  1  0  0  0  0
 37 68  1  0  0  0  0
 37 69  1  0  0  0  0
 37 70  1  0  0  0  0
 38 71  1  0  0  0  0
M  END
> <PUBCHEM_COMPOUND_CID>
7052041

> <PUBCHEM_CONFORMER_RMSD>
1.4

> <PUBCHEM_CONFORMER_DIVERSEORDER>
4
94
64
101
95
87
28
112
22
109
42
130
72
132
115
16
111
96
20
129
53
39
27
139
17
124
113
8
80
33
41
143
83
85
43
125
10
34
76
105
107
7
102
13
93
50
118
18
48
138
54
146
12
29
84
120
60
23
45
88
31
108
79
117
121
15
56
100
63
77
40
142
74
141
131
67
99
46
144
135
82
106
91
140
136
126
68
59
134
114
92
35
49
103
122
73
61
5
30
51
75
66
128
24
147
127
19
62
26
71
32
65
89
98
14
38
116
69
86
36
123
57
145
81
11
52
47
90
21
9
104
110
6
58
119
25
70
3
133
44
1
37
2
55
137
97
78

> <PUBCHEM_MMFF94_PARTIAL_CHARGES>
42
1 -0.19
10 -0.62
11 0.06
16 0.36
18 0.57
19 0.3
2 -0.57
20 0.3
21 0.3
22 0.57
23 0.54
24 0.36
25 0.09
26 0.14
27 0.66
28 -0.15
29 -0.15
3 -0.57
30 -0.14
31 0.19
32 -0.15
33 -0.15
34 -0.15
35 0.16
36 -0.15
37 0.28
38 0.16
4 -0.57
5 -0.43
57 0.37
6 -0.57
61 0.15
62 0.15
63 0.15
64 0.15
65 0.15
66 0.15
67 0.15
7 -0.66
71 0.15
8 -0.66
9 -0.73

> <PUBCHEM_EFFECTIVE_ROTOR_COUNT>
13.4

> <PUBCHEM_PHARMACOPHORE_FEATURES>
10
1 10 acceptor
1 2 acceptor
1 3 acceptor
1 4 acceptor
1 6 acceptor
1 9 donor
6 10 30 33 35 36 38 rings
6 11 12 13 14 15 17 rings
6 25 28 29 31 32 34 rings
6 7 8 16 19 20 21 rings

> <PUBCHEM_HEAVY_ATOM_COUNT>
38

> <PUBCHEM_ATOM_DEF_STEREO_COUNT>
2

> <PUBCHEM_ATOM_UDEF_STEREO_COUNT>
0

> <PUBCHEM_BOND_DEF_STEREO_COUNT>
0

> <PUBCHEM_BOND_UDEF_STEREO_COUNT>
0

> <PUBCHEM_ISOTOPIC_ATOM_COUNT>
0

> <PUBCHEM_COMPONENT_COUNT>
1

> <PUBCHEM_CACTVS_TAUTO_COUNT>
2

> <PUBCHEM_CONFORMER_ID>
006B9B0900000004

> <PUBCHEM_MMFF94_ENERGY>
95.0239

> <PUBCHEM_FEATURE_SELFOVERLAP>
50.75

> <PUBCHEM_SHAPE_FINGERPRINT>
10032420 55 17757004315099876007
10074138 170 18120908828367922314
11763715 3 15864920790399513460
12422481 6 18410571803366360232
13692114 37 18056465369453363519
15775530 1 18197521690200394446
15815584 197 18196083348676042132
15968369 26 18337105666398410852
16112460 7 18270971149983751491
16728300 4 17532908576850188457
20028762 73 18129086991228011165
20764821 26 18122075466150246159
23559900 14 17976819783631779876
238918 7 18341321254071883090
373842 8 18048598415470397915
392239 28 18197491827250028466
56638632 33 16817694718419655155
5912855 24 17830448737224964296
86090 222 18340772550329569892

> <PUBCHEM_SHAPE_MULTIPOLES>
725.48
10.4
7.58
2.4
0.62
8.53
0.69
-6.02
5.59
-1
-1.25
-0.45
1.04
3.22

> <PUBCHEM_SHAPE_SELFOVERLAP>
1538.151

> <PUBCHEM_SHAPE_VOLUME>
402.2

> <PUBCHEM_COORDINATE_TYPE>
2
5
10

$$$$
