51137021
  -OEChem-12032416253D

 45 48  0     1  0  0  0  0  0999 V2000
    7.9592    2.0681    0.0501 F   0  0  0  0  0  0  0  0  0  0  0  0
    2.5358   -0.9897    1.7600 O   0  0  0  0  0  0  0  0  0  0  0  0
   -7.0560    1.8633   -0.1760 O   0  0  0  0  0  0  0  0  0  0  0  0
    1.0908   -1.6196    0.0913 N   0  0  0  0  0  0  0  0  0  0  0  0
   -3.4816   -1.4820   -0.0698 N   0  0  0  0  0  0  0  0  0  0  0  0
   -1.8938    0.0078    0.3772 N   0  0  0  0  0  0  0  0  0  0  0  0
    3.0737   -0.5063   -0.4583 N   0  0  0  0  0  0  0  0  0  0  0  0
   -1.1527   -2.4065    0.1674 C   0  0  1  0  0  0  0  0  0  0  0  0
   -0.5738   -2.6512   -1.2339 C   0  0  0  0  0  0  0  0  0  0  0  0
    0.1171   -2.2090    1.0042 C   0  0  0  0  0  0  0  0  0  0  0  0
    0.6462   -1.7396   -1.2952 C   0  0  0  0  0  0  0  0  0  0  0  0
   -2.1529   -1.2632    0.1662 C   0  0  0  0  0  0  0  0  0  0  0  0
    2.2718   -1.0289    0.5569 C   0  0  0  0  0  0  0  0  0  0  0  0
   -4.1227   -0.2714   -0.0068 C   0  0  0  0  0  0  0  0  0  0  0  0
   -3.1104    0.6422    0.2732 C   0  0  0  0  0  0  0  0  0  0  0  0
   -5.4605    0.0918   -0.1659 C   0  0  0  0  0  0  0  0  0  0  0  0
   -3.4335    2.0032    0.4057 C   0  0  0  0  0  0  0  0  0  0  0  0
   -5.7642    1.4506   -0.0307 C   0  0  0  0  0  0  0  0  0  0  0  0
   -4.7702    2.3910    0.2500 C   0  0  0  0  0  0  0  0  0  0  0  0
    4.3219    0.1510   -0.3285 C   0  0  0  0  0  0  0  0  0  0  0  0
    4.9768    0.6342   -1.4613 C   0  0  0  0  0  0  0  0  0  0  0  0
    4.8958    0.3154    0.9321 C   0  0  0  0  0  0  0  0  0  0  0  0
    6.2058    1.2814   -1.3335 C   0  0  0  0  0  0  0  0  0  0  0  0
    6.1248    0.9626    1.0600 C   0  0  0  0  0  0  0  0  0  0  0  0
    6.7797    1.4456   -0.0729 C   0  0  0  0  0  0  0  0  0  0  0  0
   -8.0270    0.8592   -0.4615 C   0  0  0  0  0  0  0  0  0  0  0  0
   -1.6818   -3.3004    0.5220 H   0  0  0  0  0  0  0  0  0  0  0  0
   -1.2745   -2.4599   -2.0526 H   0  0  0  0  0  0  0  0  0  0  0  0
   -0.2457   -3.6959   -1.3096 H   0  0  0  0  0  0  0  0  0  0  0  0
   -0.0252   -1.5724    1.8831 H   0  0  0  0  0  0  0  0  0  0  0  0
    0.5275   -3.1717    1.3305 H   0  0  0  0  0  0  0  0  0  0  0  0
    1.4376   -2.1567   -1.9247 H   0  0  0  0  0  0  0  0  0  0  0  0
    0.3869   -0.7383   -1.6553 H   0  0  0  0  0  0  0  0  0  0  0  0
   -3.9164   -2.3754   -0.2589 H   0  0  0  0  0  0  0  0  0  0  0  0
    2.7353   -0.5755   -1.4127 H   0  0  0  0  0  0  0  0  0  0  0  0
   -6.1818   -0.6852   -0.3823 H   0  0  0  0  0  0  0  0  0  0  0  0
   -2.6684    2.7415    0.6237 H   0  0  0  0  0  0  0  0  0  0  0  0
   -5.0309    3.4420    0.3505 H   0  0  0  0  0  0  0  0  0  0  0  0
    4.5407    0.5130   -2.4496 H   0  0  0  0  0  0  0  0  0  0  0  0
    4.4578   -0.0324    1.8563 H   0  0  0  0  0  0  0  0  0  0  0  0
    6.7160    1.6579   -2.2152 H   0  0  0  0  0  0  0  0  0  0  0  0
    6.5737    1.0906    2.0407 H   0  0  0  0  0  0  0  0  0  0  0  0
   -7.8360    0.3756   -1.4256 H   0  0  0  0  0  0  0  0  0  0  0  0
   -8.1129    0.1363    0.3569 H   0  0  0  0  0  0  0  0  0  0  0  0
   -8.9962    1.3619   -0.5446 H   0  0  0  0  0  0  0  0  0  0  0  0
  1 25  1  0  0  0  0
  2 13  2  0  0  0  0
  3 18  1  0  0  0  0
  3 26  1  0  0  0  0
  4 10  1  0  0  0  0
  4 11  1  0  0  0  0
  4 13  1  0  0  0  0
  5 12  1  0  0  0  0
  5 14  1  0  0  0  0
  5 34  1  0  0  0  0
  6 12  2  0  0  0  0
  6 15  1  0  0  0  0
  7 13  1  0  0  0  0
  7 20  1  0  0  0  0
  7 35  1  0  0  0  0
  8  9  1  0  0  0  0
  8 10  1  0  0  0  0
  8 12  1  0  0  0  0
  8 27  1  0  0  0  0
  9 11  1  0  0  0  0
  9 28  1  0  0  0  0
  9 29  1  0  0  0  0
 10 30  1  0  0  0  0
 10 31  1  0  0  0  0
 11 32  1  0  0  0  0
 11 33  1  0  0  0  0
 14 15  2  0  0  0  0
 14 16  1  0  0  0  0
 15 17  1  0  0  0  0
 16 18  2  0  0  0  0
 16 36  1  0  0  0  0
 17 19  2  0  0  0  0
 17 37  1  0  0  0  0
 18 19  1  0  0  0  0
 19 38  1  0  0  0  0
 20 21  2  0  0  0  0
 20 22  1  0  0  0  0
 21 23  1  0  0  0  0
 21 39  1  0  0  0  0
 22 24  2  0  0  0  0
 22 40  1  0  0  0  0
 23 25  2  0  0  0  0
 23 41  1  0  0  0  0
 24 25  1  0  0  0  0
 24 42  1  0  0  0  0
 26 43  1  0  0  0  0
 26 44  1  0  0  0  0
 26 45  1  0  0  0  0
M  END
> <PUBCHEM_COMPOUND_CID>
51137021

> <PUBCHEM_CONFORMER_RMSD>
0.8

> <PUBCHEM_CONFORMER_DIVERSEORDER>
1
86
14
67
112
50
99
65
20
108
26
64
54
69
101
61
98
83
105
89
2
13
90
30
63
8
113
87
51
106
24
60
59
76
31
82
111
71
102
62
78
94
81
23
79
91
57
75
39
5
22
42
47
97
92
27
84
107
10
56
109
16
110
96
103
73
100
66
70
6
85
18
104
38
32
68
4
17
35
58
49
52
11
93
19
74
88
44
37
43
12
46
7
48
36
53
29
55
41
28
25
40
33
80
95
3
21
34
15
77
45
9
72

> <PUBCHEM_MMFF94_PARTIAL_CHARGES>
34
1 -0.19
10 0.3
11 0.3
12 0.01
13 0.69
14 -0.15
15 0.23
16 -0.15
17 -0.15
18 0.08
19 -0.15
2 -0.57
20 0.12
21 -0.15
22 -0.15
23 -0.15
24 -0.15
25 0.19
26 0.28
3 -0.36
34 0.27
35 0.37
36 0.15
37 0.15
38 0.15
39 0.15
4 -0.66
40 0.15
41 0.15
42 0.15
5 0.03
6 -0.57
7 -0.55
8 0.18

> <PUBCHEM_EFFECTIVE_ROTOR_COUNT>
6

> <PUBCHEM_PHARMACOPHORE_FEATURES>
9
1 2 acceptor
1 3 acceptor
1 5 donor
1 7 donor
3 5 6 12 cation
5 4 8 9 10 11 rings
5 5 6 12 14 15 rings
6 14 15 16 17 18 19 rings
6 20 21 22 23 24 25 rings

> <PUBCHEM_HEAVY_ATOM_COUNT>
26

> <PUBCHEM_ATOM_DEF_STEREO_COUNT>
1

> <PUBCHEM_ATOM_UDEF_STEREO_COUNT>
0

> <PUBCHEM_BOND_DEF_STEREO_COUNT>
0

> <PUBCHEM_BOND_UDEF_STEREO_COUNT>
0

> <PUBCHEM_ISOTOPIC_ATOM_COUNT>
0

> <PUBCHEM_COMPONENT_COUNT>
1

> <PUBCHEM_CACTVS_TAUTO_COUNT>
4

> <PUBCHEM_CONFORMER_ID>
030C49FD00000001

> <PUBCHEM_MMFF94_ENERGY>
69.8946

> <PUBCHEM_FEATURE_SELFOVERLAP>
45.779

> <PUBCHEM_SHAPE_FINGERPRINT>
10 15 18113340804076862785
10411042 1 17763181749947079639
105312 117 18130788992605501270
10591671 39 18342460365614691423
10669705 176 18341897393754040742
11823591 26 18409160013214403798
12107183 9 18189606165006947586
12596602 18 17385725802761616643
12633257 1 15864079792435772050
12760667 363 8358257025688162275
12838862 33 18336250306387038789
12895836 83 18343581862689490618
12895837 130 18267025149334426132
13673619 4 9799690394150623599
13685833 64 8934995971349616151
14123256 34 9655574119210392245
14216079 64 8862941676147531169
14257110 125 18410573963898167291
14739800 52 18338222817789070362
14931854 50 17917429779053270017
15183329 4 16128662933428059286
15188451 53 9151179736048197154
15198563 99 17914040161231279535
15238133 3 18187369874345950396
1577012 14 18333726940455050506
15961568 22 18336267851639549685
17134984 74 14405178465684862572
17980427 23 17967255329845670783
18608769 82 18340771537566945779
19427546 20 18339077198796824599
19784866 240 10087637113492605879
1979834 28 14273458037697207818
20982279 24 12462415126373536197
21033648 29 18059564845782303536
21298829 104 18409733915830711373
21424621 283 18335137657292269104
21637258 2 10663816356348765211
21756936 100 18335699498501238114
22122407 14 17895488028172969860
221357 26 16128656340668909496
24771293 8 18409450246758559477
270888 7 18409449159171172257
2748736 6 18336260167515724021
2838139 119 18343293769410555502
306946 40 17059766837505136208
312425 54 15574716902069657848
3472631 163 18409733971268868062
3918712 181 18411694387786018216
4098825 35 14979689745286000833
439807 62 11239995664051413901
44249763 50 17559942381322844450
44802255 64 17773887574528126070
5283384 27 18040708139925376205
543368 44 18412262810144225249
5470011 282 13758068628003718312
59682541 35 18335150800129565571
59682541 52 17203616939386605590
6327066 14 18412543210603470319
6712543 237 14707211019679413297
7808743 9 18410854373549240139
7970288 3 10015864267101769596
9981440 41 18334864917636402475

> <PUBCHEM_SHAPE_MULTIPOLES>
496.13
20.96
2.72
1.16
5.08
0.65
0.07
-19.82
2.1
-1.17
0.14
1.55
0.24
-0.45

> <PUBCHEM_SHAPE_SELFOVERLAP>
1086.352

> <PUBCHEM_SHAPE_VOLUME>
272.3

> <PUBCHEM_COORDINATE_TYPE>
2
5
10

$$$$
