11884204
  -OEChem-12032416133D

 48 51  0     1  0  0  0  0  0999 V2000
    7.4455    1.0405   -0.4991 Br  0  0  0  0  0  0  0  0  0  0  0  0
   -3.3025   -1.3741   -1.6642 O   0  0  0  0  0  0  0  0  0  0  0  0
   -0.1155   -2.1314    0.5877 O   0  0  0  0  0  0  0  0  0  0  0  0
    2.4620    2.4834    0.6769 O   0  0  0  0  0  0  0  0  0  0  0  0
   -1.7720    0.0455   -0.6316 N   0  0  0  0  0  0  0  0  0  0  0  0
    0.9412    0.9165   -0.0869 N   0  0  0  0  0  0  0  0  0  0  0  0
    2.1137   -1.6846    0.6961 N   0  0  0  0  0  0  0  0  0  0  0  0
   -4.1331   -0.0650    0.0944 C   0  0  0  0  0  0  0  0  0  0  0  0
   -4.8177    1.1655   -0.5047 C   0  0  0  0  0  0  0  0  0  0  0  0
   -5.1305   -1.2013    0.3309 C   0  0  0  0  0  0  0  0  0  0  0  0
    0.6960   -0.3301   -0.7992 C   0  0  2  0  0  0  0  0  0  0  0  0
   -0.6654   -0.3502   -1.5054 C   0  0  0  0  0  0  0  0  0  0  0  0
   -6.0053    1.6178    0.3407 C   0  0  0  0  0  0  0  0  0  0  0  0
   -6.3176   -0.7434    1.1742 C   0  0  0  0  0  0  0  0  0  0  0  0
   -3.0334   -0.5307   -0.8130 C   0  0  0  0  0  0  0  0  0  0  0  0
   -6.9977    0.4818    0.5709 C   0  0  0  0  0  0  0  0  0  0  0  0
   -1.4818    1.0504    0.3939 C   0  0  0  0  0  0  0  0  0  0  0  0
   -0.1980    1.8147    0.1076 C   0  0  0  0  0  0  0  0  0  0  0  0
    0.8385   -1.4343    0.2362 C   0  0  0  0  0  0  0  0  0  0  0  0
    2.2188    1.3535    0.2498 C   0  0  0  0  0  0  0  0  0  0  0  0
    3.3603    0.4085    0.1215 C   0  0  0  0  0  0  0  0  0  0  0  0
    3.2943   -0.9595    0.4324 C   0  0  0  0  0  0  0  0  0  0  0  0
    4.6096    0.9914   -0.1609 C   0  0  0  0  0  0  0  0  0  0  0  0
    4.4892   -1.6946    0.5235 C   0  0  0  0  0  0  0  0  0  0  0  0
    5.7800    0.2353   -0.1139 C   0  0  0  0  0  0  0  0  0  0  0  0
    5.7214   -1.1055    0.2423 C   0  0  0  0  0  0  0  0  0  0  0  0
   -3.7264    0.1905    1.0790 H   0  0  0  0  0  0  0  0  0  0  0  0
   -5.1711    0.9319   -1.5183 H   0  0  0  0  0  0  0  0  0  0  0  0
   -4.1187    1.9998   -0.6216 H   0  0  0  0  0  0  0  0  0  0  0  0
   -4.6319   -2.0436    0.8263 H   0  0  0  0  0  0  0  0  0  0  0  0
   -5.5157   -1.5857   -0.6226 H   0  0  0  0  0  0  0  0  0  0  0  0
    1.4715   -0.4721   -1.5622 H   0  0  0  0  0  0  0  0  0  0  0  0
   -0.6619    0.3670   -2.3359 H   0  0  0  0  0  0  0  0  0  0  0  0
   -0.8636   -1.3385   -1.9354 H   0  0  0  0  0  0  0  0  0  0  0  0
   -6.5124    2.4541   -0.1538 H   0  0  0  0  0  0  0  0  0  0  0  0
   -5.6438    1.9895    1.3074 H   0  0  0  0  0  0  0  0  0  0  0  0
   -5.9744   -0.5077    2.1891 H   0  0  0  0  0  0  0  0  0  0  0  0
   -7.0425   -1.5602    1.2648 H   0  0  0  0  0  0  0  0  0  0  0  0
   -7.8004    0.8222    1.2345 H   0  0  0  0  0  0  0  0  0  0  0  0
   -7.4655    0.2072   -0.3826 H   0  0  0  0  0  0  0  0  0  0  0  0
   -1.3941    0.5134    1.3460 H   0  0  0  0  0  0  0  0  0  0  0  0
   -2.3035    1.7617    0.4884 H   0  0  0  0  0  0  0  0  0  0  0  0
   -0.2979    2.4060   -0.8110 H   0  0  0  0  0  0  0  0  0  0  0  0
    0.0136    2.5139    0.9238 H   0  0  0  0  0  0  0  0  0  0  0  0
    2.2301   -2.5555    1.2087 H   0  0  0  0  0  0  0  0  0  0  0  0
    4.6738    2.0507   -0.4042 H   0  0  0  0  0  0  0  0  0  0  0  0
    4.4681   -2.7504    0.7877 H   0  0  0  0  0  0  0  0  0  0  0  0
    6.6226   -1.7101    0.3024 H   0  0  0  0  0  0  0  0  0  0  0  0
  1 25  1  0  0  0  0
  2 15  2  0  0  0  0
  3 19  2  0  0  0  0
  4 20  2  0  0  0  0
  5 12  1  0  0  0  0
  5 15  1  0  0  0  0
  5 17  1  0  0  0  0
  6 11  1  0  0  0  0
  6 18  1  0  0  0  0
  6 20  1  0  0  0  0
  7 19  1  0  0  0  0
  7 22  1  0  0  0  0
  7 45  1  0  0  0  0
  8  9  1  0  0  0  0
  8 10  1  0  0  0  0
  8 15  1  0  0  0  0
  8 27  1  0  0  0  0
  9 13  1  0  0  0  0
  9 28  1  0  0  0  0
  9 29  1  0  0  0  0
 10 14  1  0  0  0  0
 10 30  1  0  0  0  0
 10 31  1  0  0  0  0
 11 12  1  0  0  0  0
 11 19  1  0  0  0  0
 11 32  1  0  0  0  0
 12 33  1  0  0  0  0
 12 34  1  0  0  0  0
 13 16  1  0  0  0  0
 13 35  1  0  0  0  0
 13 36  1  0  0  0  0
 14 16  1  0  0  0  0
 14 37  1  0  0  0  0
 14 38  1  0  0  0  0
 16 39  1  0  0  0  0
 16 40  1  0  0  0  0
 17 18  1  0  0  0  0
 17 41  1  0  0  0  0
 17 42  1  0  0  0  0
 18 43  1  0  0  0  0
 18 44  1  0  0  0  0
 20 21  1  0  0  0  0
 21 22  2  0  0  0  0
 21 23  1  0  0  0  0
 22 24  1  0  0  0  0
 23 25  2  0  0  0  0
 23 46  1  0  0  0  0
 24 26  2  0  0  0  0
 24 47  1  0  0  0  0
 25 26  1  0  0  0  0
 26 48  1  0  0  0  0
M  END
> <PUBCHEM_COMPOUND_CID>
11884204

> <PUBCHEM_CONFORMER_RMSD>
0.8

> <PUBCHEM_CONFORMER_DIVERSEORDER>
1
14
12
2
17
15
13
9
3
4
8
10
5
11
16
7
6

> <PUBCHEM_MMFF94_PARTIAL_CHARGES>
25
1 -0.11
11 0.36
12 0.3
15 0.57
17 0.3
18 0.3
19 0.57
2 -0.57
20 0.54
21 0.09
22 0.12
23 -0.15
24 -0.15
25 0.11
26 -0.15
3 -0.57
4 -0.57
45 0.37
46 0.15
47 0.15
48 0.15
5 -0.66
6 -0.66
7 -0.55
8 0.06

> <PUBCHEM_EFFECTIVE_ROTOR_COUNT>
4.2

> <PUBCHEM_PHARMACOPHORE_FEATURES>
9
1 1 hydrophobe
1 2 acceptor
1 3 acceptor
1 4 acceptor
1 7 donor
6 21 22 23 24 25 26 rings
6 5 6 11 12 17 18 rings
6 8 9 10 13 14 16 rings
7 6 7 11 19 20 21 22 rings

> <PUBCHEM_HEAVY_ATOM_COUNT>
26

> <PUBCHEM_ATOM_DEF_STEREO_COUNT>
1

> <PUBCHEM_ATOM_UDEF_STEREO_COUNT>
0

> <PUBCHEM_BOND_DEF_STEREO_COUNT>
0

> <PUBCHEM_BOND_UDEF_STEREO_COUNT>
0

> <PUBCHEM_ISOTOPIC_ATOM_COUNT>
0

> <PUBCHEM_COMPONENT_COUNT>
1

> <PUBCHEM_CACTVS_TAUTO_COUNT>
3

> <PUBCHEM_CONFORMER_ID>
00B556AC00000001

> <PUBCHEM_MMFF94_ENERGY>
77.9138

> <PUBCHEM_FEATURE_SELFOVERLAP>
45.7

> <PUBCHEM_SHAPE_FINGERPRINT>
10 15 18342181068407698891
10299344 5 18334297573629892350
106641 1 17168150069385460321
10670039 82 16128384735716942699
10906281 52 18341624719660912110
11045977 3 18333733533203385467
11089746 13 15554442998959983985
11796584 16 15626223550554058582
12236239 1 18273494576324174005
12403259 415 18187071871428080805
12516196 113 18259705592415945589
12616971 3 18202278139083993133
12788726 201 18060143098256191008
13533116 47 18411416177506113682
13782708 43 16661478499011680370
13914758 101 12535357770101338998
14251764 18 18412824702680896205
14341114 176 18408325471325415929
14790565 3 18410576167100702892
14849402 71 18337396044600199896
14856354 85 18041289850174763263
14933364 13 18408606958991921113
15142383 8 18335978675511962573
15183329 4 18060134336359259549
15461852 350 17561075913782503853
15527383 91 18409165502525129133
15537594 2 18341609326007694742
15788980 27 18342735226352042845
1601671 61 17847058874200457636
18608769 82 18333732459245101578
20832881 197 18343579638218230528
21033648 29 17822554080190938333
21267235 1 18338800018918901606
21279426 13 18263924349922879030
21521721 280 18186523228701292658
21623969 137 18260554415408465227
21792934 111 18269822156665538224
22224240 67 17603586343650609338
23522609 53 18264514860539780556
23559900 14 18335415806994199305
24771293 8 18057023909182481200
3009799 131 12031791357296021087
3178227 256 18408328799856512016
335352 9 18272931639503990605
350125 39 18410855443086053308
4073 2 17895201016956775291
4093350 32 17060341868774123296
4340502 62 16515401859611514050
4463277 17 18411981356014525660
465052 167 18411985749829275590
5104073 3 17916296307013225747
5385378 56 16701754752414006423
5758199 1 18260831518609206026
59755656 215 17775010050728549524
6086070 43 17702927215732708101
6328613 192 18343584053175812472
6669772 16 12325685382283332727
7226269 152 17275387595128044329
9996256 80 18410574020144711967

> <PUBCHEM_SHAPE_MULTIPOLES>
508.46
17.97
1.99
1.01
3.8
0.08
0.26
2.32
-2.18
-0.67
-0.35
0.68
-0.19
-0.47

> <PUBCHEM_SHAPE_SELFOVERLAP>
1081.197

> <PUBCHEM_SHAPE_VOLUME>
286

> <PUBCHEM_COORDINATE_TYPE>
2
5
10

$$$$
