11886156
  -OEChem-12032416353D

 67 72  0     1  0  0  0  0  0999 V2000
    8.8233    1.4352   -1.2918 F   0  0  0  0  0  0  0  0  0  0  0  0
    7.3699    0.9044   -2.8117 F   0  0  0  0  0  0  0  0  0  0  0  0
    6.9808    2.5754   -1.4757 F   0  0  0  0  0  0  0  0  0  0  0  0
   -1.6646   -3.8598    0.6465 O   0  0  0  0  0  0  0  0  0  0  0  0
   -1.5042   -0.8700    1.6090 O   0  0  0  0  0  0  0  0  0  0  0  0
    2.9841   -2.4010    1.9246 O   0  0  0  0  0  0  0  0  0  0  0  0
   -3.8986   -2.0209   -0.8972 N   0  0  0  0  0  0  0  0  0  0  0  0
    1.2767   -1.6948    0.5349 N   0  0  0  0  0  0  0  0  0  0  0  0
   -3.7716   -3.0280   -1.7726 N   0  0  0  0  0  0  0  0  0  0  0  0
   -2.6749    3.7764    0.5888 N   0  0  0  0  0  0  0  0  0  0  0  0
   -5.0789   -1.4326   -2.6187 N   0  0  0  0  0  0  0  0  0  0  0  0
   -4.4960   -2.6627   -2.8232 N   0  0  0  0  0  0  0  0  0  0  0  0
    3.4046   -0.9179    0.1542 N   0  0  0  0  0  0  0  0  0  0  0  0
   -1.8213   -1.4990    0.3540 C   0  0  1  0  0  0  0  0  0  0  0  0
   -0.9184   -2.7095    0.2187 C   0  0  1  0  0  0  0  0  0  0  0  0
   -3.2261   -2.0695    0.4036 C   0  0  2  0  0  0  0  0  0  0  0  0
    0.2187   -2.4366    1.1772 C   0  0  2  0  0  0  0  0  0  0  0  0
   -3.0073   -3.4699    0.9655 C   0  0  0  0  0  0  0  0  0  0  0  0
   -0.4573   -1.6085    2.2541 C   0  0  0  0  0  0  0  0  0  0  0  0
   -4.6964   -1.0541   -1.4207 C   0  0  0  0  0  0  0  0  0  0  0  0
    2.6087   -1.7325    0.9645 C   0  0  0  0  0  0  0  0  0  0  0  0
   -5.0440    0.1705   -0.7468 C   0  0  0  0  0  0  0  0  0  0  0  0
   -1.5330    2.9219    0.2646 C   0  0  0  0  0  0  0  0  0  0  0  0
   -2.1182    5.1233    0.7123 C   0  0  0  0  0  0  0  0  0  0  0  0
   -0.4430    3.4435    1.1893 C   0  0  0  0  0  0  0  0  0  0  0  0
   -0.8295    4.8892    1.4864 C   0  0  0  0  0  0  0  0  0  0  0  0
   -3.7280    3.7003   -0.4129 C   0  0  0  0  0  0  0  0  0  0  0  0
   -4.2443    1.3030   -0.9003 C   0  0  0  0  0  0  0  0  0  0  0  0
   -4.5821    2.4889   -0.2482 C   0  0  0  0  0  0  0  0  0  0  0  0
   -6.1812    0.2238    0.0591 C   0  0  0  0  0  0  0  0  0  0  0  0
   -5.7195    2.5421    0.5577 C   0  0  0  0  0  0  0  0  0  0  0  0
   -6.5190    1.4096    0.7113 C   0  0  0  0  0  0  0  0  0  0  0  0
    4.7960   -0.6858    0.2569 C   0  0  0  0  0  0  0  0  0  0  0  0
    5.4304    0.1668   -0.6467 C   0  0  0  0  0  0  0  0  0  0  0  0
    5.5340   -1.3101    1.2626 C   0  0  0  0  0  0  0  0  0  0  0  0
    6.8027    0.3948   -0.5446 C   0  0  0  0  0  0  0  0  0  0  0  0
    6.9063   -1.0819    1.3648 C   0  0  0  0  0  0  0  0  0  0  0  0
    7.5406   -0.2295    0.4611 C   0  0  0  0  0  0  0  0  0  0  0  0
    7.4810    1.3058   -1.5107 C   0  0  0  0  0  0  0  0  0  0  0  0
   -1.6579   -0.7557   -0.4329 H   0  0  0  0  0  0  0  0  0  0  0  0
   -0.6016   -2.8917   -0.8133 H   0  0  0  0  0  0  0  0  0  0  0  0
   -3.8750   -1.5169    1.0928 H   0  0  0  0  0  0  0  0  0  0  0  0
    0.6421   -3.3501    1.6083 H   0  0  0  0  0  0  0  0  0  0  0  0
   -3.7072   -4.2245    0.5947 H   0  0  0  0  0  0  0  0  0  0  0  0
   -3.0813   -3.4562    2.0589 H   0  0  0  0  0  0  0  0  0  0  0  0
   -0.9277   -2.2515    3.0062 H   0  0  0  0  0  0  0  0  0  0  0  0
    0.2134   -0.9124    2.7666 H   0  0  0  0  0  0  0  0  0  0  0  0
    1.0346   -1.0629   -0.2225 H   0  0  0  0  0  0  0  0  0  0  0  0
   -1.7282    1.8629    0.4570 H   0  0  0  0  0  0  0  0  0  0  0  0
   -1.2147    3.0372   -0.7794 H   0  0  0  0  0  0  0  0  0  0  0  0
   -1.8884    5.5576   -0.2693 H   0  0  0  0  0  0  0  0  0  0  0  0
   -2.7904    5.8021    1.2464 H   0  0  0  0  0  0  0  0  0  0  0  0
   -0.4146    2.8679    2.1220 H   0  0  0  0  0  0  0  0  0  0  0  0
    0.5451    3.3756    0.7230 H   0  0  0  0  0  0  0  0  0  0  0  0
   -0.0451    5.5896    1.1820 H   0  0  0  0  0  0  0  0  0  0  0  0
   -0.9935    5.0149    2.5631 H   0  0  0  0  0  0  0  0  0  0  0  0
   -4.3825    4.5790   -0.3225 H   0  0  0  0  0  0  0  0  0  0  0  0
   -3.3300    3.7560   -1.4357 H   0  0  0  0  0  0  0  0  0  0  0  0
   -3.3600    1.2637   -1.5330 H   0  0  0  0  0  0  0  0  0  0  0  0
    2.9345   -0.4296   -0.6039 H   0  0  0  0  0  0  0  0  0  0  0  0
   -6.8144   -0.6507    0.1893 H   0  0  0  0  0  0  0  0  0  0  0  0
   -5.9934    3.4586    1.0736 H   0  0  0  0  0  0  0  0  0  0  0  0
   -7.4041    1.4508    1.3394 H   0  0  0  0  0  0  0  0  0  0  0  0
    4.8582    0.6553   -1.4322 H   0  0  0  0  0  0  0  0  0  0  0  0
    5.1155   -1.9823    1.9981 H   0  0  0  0  0  0  0  0  0  0  0  0
    7.4820   -1.5676    2.1474 H   0  0  0  0  0  0  0  0  0  0  0  0
    8.6102   -0.0643    0.5568 H   0  0  0  0  0  0  0  0  0  0  0  0
  1 39  1  0  0  0  0
  2 39  1  0  0  0  0
  3 39  1  0  0  0  0
  4 15  1  0  0  0  0
  4 18  1  0  0  0  0
  5 14  1  0  0  0  0
  5 19  1  0  0  0  0
  6 21  2  0  0  0  0
  7  9  1  0  0  0  0
  7 16  1  0  0  0  0
  7 20  1  0  0  0  0
  8 17  1  0  0  0  0
  8 21  1  0  0  0  0
  8 48  1  0  0  0  0
  9 12  2  0  0  0  0
 10 23  1  0  0  0  0
 10 24  1  0  0  0  0
 10 27  1  0  0  0  0
 11 12  1  0  0  0  0
 11 20  2  0  0  0  0
 13 21  1  0  0  0  0
 13 33  1  0  0  0  0
 13 60  1  0  0  0  0
 14 15  1  0  0  0  0
 14 16  1  0  0  0  0
 14 40  1  0  0  0  0
 15 17  1  0  0  0  0
 15 41  1  0  0  0  0
 16 18  1  0  0  0  0
 16 42  1  0  0  0  0
 17 19  1  0  0  0  0
 17 43  1  0  0  0  0
 18 44  1  0  0  0  0
 18 45  1  0  0  0  0
 19 46  1  0  0  0  0
 19 47  1  0  0  0  0
 20 22  1  0  0  0  0
 22 28  1  0  0  0  0
 22 30  2  0  0  0  0
 23 25  1  0  0  0  0
 23 49  1  0  0  0  0
 23 50  1  0  0  0  0
 24 26  1  0  0  0  0
 24 51  1  0  0  0  0
 24 52  1  0  0  0  0
 25 26  1  0  0  0  0
 25 53  1  0  0  0  0
 25 54  1  0  0  0  0
 26 55  1  0  0  0  0
 26 56  1  0  0  0  0
 27 29  1  0  0  0  0
 27 57  1  0  0  0  0
 27 58  1  0  0  0  0
 28 29  2  0  0  0  0
 28 59  1  0  0  0  0
 29 31  1  0  0  0  0
 30 32  1  0  0  0  0
 30 61  1  0  0  0  0
 31 32  2  0  0  0  0
 31 62  1  0  0  0  0
 32 63  1  0  0  0  0
 33 34  1  0  0  0  0
 33 35  2  0  0  0  0
 34 36  2  0  0  0  0
 34 64  1  0  0  0  0
 35 37  1  0  0  0  0
 35 65  1  0  0  0  0
 36 38  1  0  0  0  0
 36 39  1  0  0  0  0
 37 38  2  0  0  0  0
 37 66  1  0  0  0  0
 38 67  1  0  0  0  0
M  END
> <PUBCHEM_COMPOUND_CID>
11886156

> <PUBCHEM_CONFORMER_RMSD>
1.2

> <PUBCHEM_CONFORMER_DIVERSEORDER>
1
141
24
41
164
137
118
140
61
14
96
100
134
194
57
174
186
163
184
182
37
176
172
126
115
168
59
125
106
88
65
74
144
147
97
148
173
139
87
31
133
109
38
18
181
68
104
152
71
121
77
149
34
86
162
3
105
193
129
89
83
35
154
25
53
43
63
39
85
150
136
153
175
11
117
30
189
157
67
145
170
156
84
93
58
29
151
179
81
76
161
128
180
64
13
73
171
99
19
119
78
26
143
190
120
131
188
138
62
50
191
187
112
183
192
75
197
169
56
127
15
40
178
185
51
123
90
52
142
111
60
160
166
195
27
158
47
22
108
55
95
130
107
98
44
159
196
82
46
91
103
66
116
49
167
72
2
122
165
92
23
110
132
177
80
135
21
155
20
12
42
5
8
17
48
114
16
9
124
45
102
7
94
33
4
54
70
28
101
146
69
36
113
6
79
32
10

> <PUBCHEM_MMFF94_PARTIAL_CHARGES>
46
1 -0.34
10 -0.81
11 -0.34
13 -0.55
14 0.28
15 0.28
16 0.26
17 0.3
18 0.28
19 0.28
2 -0.34
20 0.13
21 0.69
22 0.05
23 0.27
24 0.27
27 0.41
28 -0.15
29 -0.14
3 -0.34
30 -0.15
31 -0.15
32 -0.15
33 0.12
34 -0.15
35 -0.15
36 -0.14
37 -0.15
38 -0.15
39 1.16
4 -0.56
48 0.37
5 -0.56
59 0.15
6 -0.57
60 0.37
61 0.15
62 0.15
63 0.15
64 0.15
65 0.15
66 0.15
67 0.15
7 0.31
8 -0.73
9 -0.42

> <PUBCHEM_EFFECTIVE_ROTOR_COUNT>
11.2

> <PUBCHEM_PHARMACOPHORE_FEATURES>
13
1 10 cation
1 13 donor
1 4 acceptor
1 5 acceptor
1 6 acceptor
1 8 donor
3 7 11 20 cation
5 10 23 24 25 26 rings
5 4 14 15 16 18 rings
5 5 14 15 17 19 rings
5 7 9 11 12 20 rings
6 22 28 29 30 31 32 rings
6 33 34 35 36 37 38 rings

> <PUBCHEM_HEAVY_ATOM_COUNT>
39

> <PUBCHEM_ATOM_DEF_STEREO_COUNT>
4

> <PUBCHEM_ATOM_UDEF_STEREO_COUNT>
0

> <PUBCHEM_BOND_DEF_STEREO_COUNT>
0

> <PUBCHEM_BOND_UDEF_STEREO_COUNT>
0

> <PUBCHEM_ISOTOPIC_ATOM_COUNT>
0

> <PUBCHEM_COMPONENT_COUNT>
1

> <PUBCHEM_CACTVS_TAUTO_COUNT>
3

> <PUBCHEM_CONFORMER_ID>
00B55E4C00000001

> <PUBCHEM_MMFF94_ENERGY>
90.2664

> <PUBCHEM_FEATURE_SELFOVERLAP>
66.717

> <PUBCHEM_SHAPE_FINGERPRINT>
10454371 7 18342182146255054028
11007060 377 16153420688269798187
11200772 71 18408884006031624576
11297750 10 17321274840497832435
11408170 253 18410299090619325232
11410812 94 18344146987125264012
11476731 118 18268424814804982888
11973864 220 18115885138994758948
12539747 363 17539433310699609187
12788726 201 18339912706783519339
13347071 3 18336834186101033500
13782708 43 13254807841335521934
14394314 77 18339644426495786569
14556957 393 18410013269182384948
14930077 153 18411420609115576685
15183329 4 18040986358963766294
15326923 133 17843101847933137744
15538507 32 18410858793287521808
15685185 35 17895205449563490844
15876981 60 18410568513906513871
16112460 7 17967819332213486492
21796203 349 18265639674795545409
3610482 184 18408325458208711174
4169191 19 17676202498897843958
437795 70 18272364299903874345
44555599 121 18113334207323684850
44880568 143 17489300927853888762
50677037 204 18113329821698203428
5171179 24 18058153106816903905
563151 74 15864353502275026034
5937810 71 17822583819372288020
6036956 94 17976816489893497573
6201320 215 18199174115090978192
6608658 132 18269819987506619327

> <PUBCHEM_SHAPE_MULTIPOLES>
728.31
21.55
6.12
2.02
46.73
5.55
-1
7.48
-10.12
-7.81
1.54
0.72
-0.8
-5.01

> <PUBCHEM_SHAPE_SELFOVERLAP>
1590.072

> <PUBCHEM_SHAPE_VOLUME>
399.5

> <PUBCHEM_COORDINATE_TYPE>
2
5
10

$$$$
