26743010
  -OEChem-12032416193D

 53 55  0     1  0  0  0  0  0999 V2000
   -0.0922   -1.3661   -1.6178 O   0  0  0  0  0  0  0  0  0  0  0  0
    1.2257    3.7598    0.2693 O   0  0  0  0  0  0  0  0  0  0  0  0
   -1.4750    3.0438   -1.4368 O   0  0  0  0  0  0  0  0  0  0  0  0
    5.1219   -1.7697   -0.1311 N   0  0  0  0  0  0  0  0  0  0  0  0
   -0.7850   -2.5927    0.2305 N   0  0  0  0  0  0  0  0  0  0  0  0
    2.3384    3.0590    0.7186 N   0  0  0  0  0  0  0  0  0  0  0  0
    2.3879   -0.7193   -0.4894 C   0  0  1  0  0  0  0  0  0  0  0  0
    3.4437   -0.0176    0.3978 C   0  0  2  0  0  0  0  0  0  0  0  0
    3.1082   -1.5713   -1.5479 C   0  0  0  0  0  0  0  0  0  0  0  0
    4.4791   -1.0146    0.9450 C   0  0  0  0  0  0  0  0  0  0  0  0
    4.1488   -2.5070   -0.9341 C   0  0  0  0  0  0  0  0  0  0  0  0
    2.8253    0.7940    1.5369 C   0  0  0  0  0  0  0  0  0  0  0  0
    1.3762   -1.5637    0.2945 C   0  0  0  0  0  0  0  0  0  0  0  0
    1.8819    1.8387    1.0147 C   0  0  0  0  0  0  0  0  0  0  0  0
    0.1056   -1.8108   -0.4905 C   0  0  0  0  0  0  0  0  0  0  0  0
    0.5027    1.7122    0.7752 C   0  0  0  0  0  0  0  0  0  0  0  0
    0.1387    2.9473    0.3077 C   0  0  0  0  0  0  0  0  0  0  0  0
   -2.0808   -2.9833   -0.2756 C   0  0  0  0  0  0  0  0  0  0  0  0
   -1.1322    3.5317   -0.1366 C   0  0  0  0  0  0  0  0  0  0  0  0
   -3.1463   -1.9869    0.0792 C   0  0  0  0  0  0  0  0  0  0  0  0
   -3.8607   -2.1240    1.2693 C   0  0  0  0  0  0  0  0  0  0  0  0
   -3.4219   -0.9241   -0.7810 C   0  0  0  0  0  0  0  0  0  0  0  0
   -4.8507   -1.1984    1.5993 C   0  0  0  0  0  0  0  0  0  0  0  0
   -4.4119    0.0016   -0.4513 C   0  0  0  0  0  0  0  0  0  0  0  0
   -5.1262   -0.1356    0.7390 C   0  0  0  0  0  0  0  0  0  0  0  0
   -2.7011    3.5970   -1.8851 C   0  0  0  0  0  0  0  0  0  0  0  0
    1.8466    0.0579   -1.0437 H   0  0  0  0  0  0  0  0  0  0  0  0
    3.9885    0.6851   -0.2522 H   0  0  0  0  0  0  0  0  0  0  0  0
    3.6113   -0.9003   -2.2574 H   0  0  0  0  0  0  0  0  0  0  0  0
    2.3946   -2.1578   -2.1372 H   0  0  0  0  0  0  0  0  0  0  0  0
    5.2568   -0.4687    1.4914 H   0  0  0  0  0  0  0  0  0  0  0  0
    4.0145   -1.7043    1.6605 H   0  0  0  0  0  0  0  0  0  0  0  0
    3.6745   -3.2902   -0.3327 H   0  0  0  0  0  0  0  0  0  0  0  0
    4.6828   -3.0178   -1.7432 H   0  0  0  0  0  0  0  0  0  0  0  0
    3.6285    1.2990    2.0916 H   0  0  0  0  0  0  0  0  0  0  0  0
    2.3240    0.1626    2.2779 H   0  0  0  0  0  0  0  0  0  0  0  0
    1.0623   -1.0865    1.2248 H   0  0  0  0  0  0  0  0  0  0  0  0
    1.7986   -2.5334    0.5790 H   0  0  0  0  0  0  0  0  0  0  0  0
    5.7932   -2.4237    0.2704 H   0  0  0  0  0  0  0  0  0  0  0  0
   -0.1481    0.8653    0.9275 H   0  0  0  0  0  0  0  0  0  0  0  0
   -0.5336   -2.8967    1.1668 H   0  0  0  0  0  0  0  0  0  0  0  0
   -2.3170   -3.9664    0.1471 H   0  0  0  0  0  0  0  0  0  0  0  0
   -2.0242   -3.1100   -1.3633 H   0  0  0  0  0  0  0  0  0  0  0  0
   -1.9262    3.2625    0.5701 H   0  0  0  0  0  0  0  0  0  0  0  0
   -1.0602    4.6254   -0.1684 H   0  0  0  0  0  0  0  0  0  0  0  0
   -3.6541   -2.9466    1.9488 H   0  0  0  0  0  0  0  0  0  0  0  0
   -2.8752   -0.8054   -1.7125 H   0  0  0  0  0  0  0  0  0  0  0  0
   -5.4066   -1.3048    2.5263 H   0  0  0  0  0  0  0  0  0  0  0  0
   -4.6269    0.8286   -1.1215 H   0  0  0  0  0  0  0  0  0  0  0  0
   -5.8969    0.5853    0.9958 H   0  0  0  0  0  0  0  0  0  0  0  0
   -2.9256    3.1835   -2.8720 H   0  0  0  0  0  0  0  0  0  0  0  0
   -2.6228    4.6849   -1.9735 H   0  0  0  0  0  0  0  0  0  0  0  0
   -3.5160    3.3327   -1.2041 H   0  0  0  0  0  0  0  0  0  0  0  0
  1 15  2  0  0  0  0
  2  6  1  0  0  0  0
  2 17  1  0  0  0  0
  3 19  1  0  0  0  0
  3 26  1  0  0  0  0
  4 10  1  0  0  0  0
  4 11  1  0  0  0  0
  4 39  1  0  0  0  0
  5 15  1  0  0  0  0
  5 18  1  0  0  0  0
  5 41  1  0  0  0  0
  6 14  2  0  0  0  0
  7  8  1  0  0  0  0
  7  9  1  0  0  0  0
  7 13  1  0  0  0  0
  7 27  1  0  0  0  0
  8 10  1  0  0  0  0
  8 12  1  0  0  0  0
  8 28  1  0  0  0  0
  9 11  1  0  0  0  0
  9 29  1  0  0  0  0
  9 30  1  0  0  0  0
 10 31  1  0  0  0  0
 10 32  1  0  0  0  0
 11 33  1  0  0  0  0
 11 34  1  0  0  0  0
 12 14  1  0  0  0  0
 12 35  1  0  0  0  0
 12 36  1  0  0  0  0
 13 15  1  0  0  0  0
 13 37  1  0  0  0  0
 13 38  1  0  0  0  0
 14 16  1  0  0  0  0
 16 17  2  0  0  0  0
 16 40  1  0  0  0  0
 17 19  1  0  0  0  0
 18 20  1  0  0  0  0
 18 42  1  0  0  0  0
 18 43  1  0  0  0  0
 19 44  1  0  0  0  0
 19 45  1  0  0  0  0
 20 21  2  0  0  0  0
 20 22  1  0  0  0  0
 21 23  1  0  0  0  0
 21 46  1  0  0  0  0
 22 24  2  0  0  0  0
 22 47  1  0  0  0  0
 23 25  2  0  0  0  0
 23 48  1  0  0  0  0
 24 25  1  0  0  0  0
 24 49  1  0  0  0  0
 25 50  1  0  0  0  0
 26 51  1  0  0  0  0
 26 52  1  0  0  0  0
 26 53  1  0  0  0  0
M  END
> <PUBCHEM_COMPOUND_CID>
26743010

> <PUBCHEM_CONFORMER_RMSD>
1

> <PUBCHEM_CONFORMER_DIVERSEORDER>
5
49
134
149
140
100
151
65
120
98
14
73
150
85
84
139
92
126
148
74
135
11
111
144
138
23
1
51
75
131
108
6
67
145
129
34
156
40
130
104
72
33
132
167
117
152
42
12
94
22
50
166
36
16
66
99
58
127
171
142
28
60
55
95
101
103
155
45
59
88
15
91
41
118
56
69
35
38
123
162
89
76
125
9
154
30
96
82
128
68
147
110
122
79
3
24
47
26
10
116
112
97
168
17
102
165
44
37
8
143
105
159
80
25
13
48
157
163
57
21
20
164
160
124
137
141
54
78
86
114
115
31
18
43
77
169
109
62
107
121
146
52
53
27
63
61
83
29
106
71
64
19
119
7
161
93
170
113
32
2
136
158
39
4
46
87
90
153
133
81
70

> <PUBCHEM_MMFF94_PARTIAL_CHARGES>
31
1 -0.57
10 0.27
11 0.27
12 0.18
13 0.06
14 0.11
15 0.57
16 -0.15
17 -0.04
18 0.44
19 0.46
2 -0.02
20 -0.14
21 -0.15
22 -0.15
23 -0.15
24 -0.15
25 -0.15
26 0.28
3 -0.56
39 0.36
4 -0.9
40 0.15
41 0.37
46 0.15
47 0.15
48 0.15
49 0.15
5 -0.73
50 0.15
6 -0.41

> <PUBCHEM_EFFECTIVE_ROTOR_COUNT>
10.2

> <PUBCHEM_PHARMACOPHORE_FEATURES>
9
1 1 acceptor
1 3 acceptor
1 4 cation
1 4 donor
1 5 donor
1 6 acceptor
5 2 6 14 16 17 rings
6 20 21 22 23 24 25 rings
6 4 7 8 9 10 11 rings

> <PUBCHEM_HEAVY_ATOM_COUNT>
26

> <PUBCHEM_ATOM_DEF_STEREO_COUNT>
2

> <PUBCHEM_ATOM_UDEF_STEREO_COUNT>
0

> <PUBCHEM_BOND_DEF_STEREO_COUNT>
0

> <PUBCHEM_BOND_UDEF_STEREO_COUNT>
0

> <PUBCHEM_ISOTOPIC_ATOM_COUNT>
0

> <PUBCHEM_COMPONENT_COUNT>
1

> <PUBCHEM_CACTVS_TAUTO_COUNT>
2

> <PUBCHEM_CONFORMER_ID>
019810E200000005

> <PUBCHEM_MMFF94_ENERGY>
41.1

> <PUBCHEM_FEATURE_SELFOVERLAP>
45.671

> <PUBCHEM_SHAPE_FINGERPRINT>
10688039 33 18334017185242977847
108634 29 18054782884834521550
11421498 54 17749395831979732714
11513181 2 17845663688666394607
12156800 1 17268395714292259957
12293681 25 16912014206480556438
12422481 6 18125132056999562736
12633257 1 18338226193280177051
12645989 146 18272083877300452071
12788726 201 18263936458016487258
13075007 39 18043829777948343083
13402501 40 18339920399375979205
14363568 33 18048609410090868345
14790565 3 17619064379784893728
15081414 286 18342181115362325592
15420108 30 17628346384163424542
1601671 61 18199472245813620856
16067689 391 17052181013213538334
17357779 13 18342451513175157444
17859628 37 18197216055968385365
20567600 299 17843963877896551721
20739085 24 18121216751616370560
20764821 26 18122336887866953865
21860390 5 18058736930258343806
22182313 1 18199733792042150296
3052486 1 18191580861718994240
4409770 3 18193557761729243695
5081480 168 17553812603423272951
508706 21 18263635191687545213
5283268 108 18412829092554269274
6287921 2 17905336478487482027

> <PUBCHEM_SHAPE_MULTIPOLES>
502.52
9.77
5.07
1.5
2.68
5.18
0.22
-6.28
-1.75
0.84
1.09
0.36
0.3
2.71

> <PUBCHEM_SHAPE_SELFOVERLAP>
1046.139

> <PUBCHEM_SHAPE_VOLUME>
284.2

> <PUBCHEM_COORDINATE_TYPE>
2
5
10

$$$$
