44715906
  -OEChem-12032416163D

 86 92  0     1  0  0  0  0  0999 V2000
    6.6879   -4.0744   -1.4283 O   0  0  0  0  0  0  0  0  0  0  0  0
   -2.6102   -2.0603    1.7899 O   0  0  0  0  0  0  0  0  0  0  0  0
    2.1805    3.9991    0.0092 N   0  0  2  0  0  0  0  0  0  0  0  0
    3.1511    0.5283    1.1438 N   0  0  0  0  0  0  0  0  0  0  0  0
   -2.3323    3.4888    0.0923 N   0  0  0  0  0  0  0  0  0  0  0  0
   -3.4078    2.7093    0.2973 N   0  0  0  0  0  0  0  0  0  0  0  0
    0.9326    2.8532   -1.9688 C   0  0  2  0  0  0  0  0  0  0  0  0
   -0.0726    3.6093   -1.0566 C   0  0  2  0  0  0  0  0  0  0  0  0
    2.5932    2.5746   -0.0952 C   0  0  2  0  0  0  0  0  0  0  0  0
    1.7167    1.8275   -1.1233 C   0  0  0  0  0  0  0  0  0  0  0  0
    1.9505    3.8990   -2.4722 C   0  0  0  0  0  0  0  0  0  0  0  0
    0.7111    4.0901    0.1980 C   0  0  0  0  0  0  0  0  0  0  0  0
    2.5251    4.6668   -1.2689 C   0  0  0  0  0  0  0  0  0  0  0  0
    2.6049    1.8701    1.2631 C   0  0  0  0  0  0  0  0  0  0  0  0
   -1.3758    2.9130   -0.6914 C   0  0  0  0  0  0  0  0  0  0  0  0
   -1.8589    1.6705   -1.0216 C   0  0  0  0  0  0  0  0  0  0  0  0
    4.6128    0.5685    1.0478 C   0  0  0  0  0  0  0  0  0  0  0  0
    2.7434   -0.3019    2.2807 C   0  0  0  0  0  0  0  0  0  0  0  0
   -3.1129    1.6000   -0.3856 C   0  0  0  0  0  0  0  0  0  0  0  0
   -2.2875    4.8017    0.6930 C   0  0  0  0  0  0  0  0  0  0  0  0
    5.1657   -0.6672    0.3889 C   0  0  0  0  0  0  0  0  0  0  0  0
    1.3184   -0.7700    2.1506 C   0  0  0  0  0  0  0  0  0  0  0  0
   -4.0330    0.4931   -0.4164 C   0  0  0  0  0  0  0  0  0  0  0  0
    6.0777   -1.4731    1.0706 C   0  0  0  0  0  0  0  0  0  0  0  0
    0.3855   -0.4494    3.1369 C   0  0  0  0  0  0  0  0  0  0  0  0
    4.7653   -1.0064   -0.9034 C   0  0  0  0  0  0  0  0  0  0  0  0
    0.9309   -1.5244    1.0430 C   0  0  0  0  0  0  0  0  0  0  0  0
   -3.7116   -0.6611   -1.1314 C   0  0  0  0  0  0  0  0  0  0  0  0
   -5.2424    0.5749    0.2677 C   0  0  0  0  0  0  0  0  0  0  0  0
   -4.5981   -1.7496   -1.1710 C   0  0  0  0  0  0  0  0  0  0  0  0
   -6.1349   -0.4970    0.2392 C   0  0  0  0  0  0  0  0  0  0  0  0
    6.5896   -2.6179    0.4598 C   0  0  0  0  0  0  0  0  0  0  0  0
   -0.9345   -0.8832    3.0158 C   0  0  0  0  0  0  0  0  0  0  0  0
    5.2771   -2.1512   -1.5144 C   0  0  0  0  0  0  0  0  0  0  0  0
   -0.3891   -1.9583    0.9219 C   0  0  0  0  0  0  0  0  0  0  0  0
   -5.8278   -1.6664   -0.4754 C   0  0  0  0  0  0  0  0  0  0  0  0
    6.1892   -2.9568   -0.8328 C   0  0  0  0  0  0  0  0  0  0  0  0
   -1.3218   -1.6378    1.9083 C   0  0  0  0  0  0  0  0  0  0  0  0
   -4.2911   -2.9189   -1.8855 C   0  0  0  0  0  0  0  0  0  0  0  0
   -6.7144   -2.7549   -0.5151 C   0  0  0  0  0  0  0  0  0  0  0  0
   -5.1837   -3.9907   -1.9141 C   0  0  0  0  0  0  0  0  0  0  0  0
   -6.3930   -3.9090   -1.2302 C   0  0  0  0  0  0  0  0  0  0  0  0
    6.2359   -4.3618   -2.7509 C   0  0  0  0  0  0  0  0  0  0  0  0
   -3.5115   -1.6959    2.8344 C   0  0  0  0  0  0  0  0  0  0  0  0
    0.4317    2.3651   -2.8113 H   0  0  0  0  0  0  0  0  0  0  0  0
   -0.3830    4.5036   -1.6197 H   0  0  0  0  0  0  0  0  0  0  0  0
    3.6190    2.5882   -0.4818 H   0  0  0  0  0  0  0  0  0  0  0  0
    1.0157    1.1402   -0.6383 H   0  0  0  0  0  0  0  0  0  0  0  0
    2.3534    1.2259   -1.7821 H   0  0  0  0  0  0  0  0  0  0  0  0
    1.4694    4.5990   -3.1651 H   0  0  0  0  0  0  0  0  0  0  0  0
    2.7568    3.3992   -3.0228 H   0  0  0  0  0  0  0  0  0  0  0  0
    0.4133    3.5470    1.1014 H   0  0  0  0  0  0  0  0  0  0  0  0
    0.4655    5.1402    0.4013 H   0  0  0  0  0  0  0  0  0  0  0  0
    2.1499    5.6982   -1.2622 H   0  0  0  0  0  0  0  0  0  0  0  0
    3.6144    4.7527   -1.3667 H   0  0  0  0  0  0  0  0  0  0  0  0
    1.5767    1.8318    1.6392 H   0  0  0  0  0  0  0  0  0  0  0  0
    3.1703    2.4606    1.9975 H   0  0  0  0  0  0  0  0  0  0  0  0
   -1.3557    0.9390   -1.6369 H   0  0  0  0  0  0  0  0  0  0  0  0
    4.9768    1.4067    0.4433 H   0  0  0  0  0  0  0  0  0  0  0  0
    5.0630    0.7228    2.0385 H   0  0  0  0  0  0  0  0  0  0  0  0
    3.3481   -1.2162    2.3457 H   0  0  0  0  0  0  0  0  0  0  0  0
    2.9044    0.2253    3.2311 H   0  0  0  0  0  0  0  0  0  0  0  0
   -1.6963    4.7444    1.6093 H   0  0  0  0  0  0  0  0  0  0  0  0
   -1.8637    5.5154   -0.0162 H   0  0  0  0  0  0  0  0  0  0  0  0
   -3.3074    5.1146    0.9359 H   0  0  0  0  0  0  0  0  0  0  0  0
    6.3978   -1.2220    2.0782 H   0  0  0  0  0  0  0  0  0  0  0  0
    0.6737    0.1392    4.0038 H   0  0  0  0  0  0  0  0  0  0  0  0
    4.0619   -0.3860   -1.4504 H   0  0  0  0  0  0  0  0  0  0  0  0
    1.6468   -1.7859    0.2683 H   0  0  0  0  0  0  0  0  0  0  0  0
   -2.7720   -0.7485   -1.6720 H   0  0  0  0  0  0  0  0  0  0  0  0
   -5.5292    1.4555    0.8369 H   0  0  0  0  0  0  0  0  0  0  0  0
   -7.0742   -0.4119    0.7818 H   0  0  0  0  0  0  0  0  0  0  0  0
    7.2993   -3.2420    0.9958 H   0  0  0  0  0  0  0  0  0  0  0  0
   -1.6073   -0.5974    3.8171 H   0  0  0  0  0  0  0  0  0  0  0  0
    4.9246   -2.3548   -2.5197 H   0  0  0  0  0  0  0  0  0  0  0  0
   -0.6857   -2.5449    0.0567 H   0  0  0  0  0  0  0  0  0  0  0  0
   -3.3514   -3.0058   -2.4270 H   0  0  0  0  0  0  0  0  0  0  0  0
   -7.6651   -2.7131    0.0124 H   0  0  0  0  0  0  0  0  0  0  0  0
   -4.9340   -4.8895   -2.4704 H   0  0  0  0  0  0  0  0  0  0  0  0
   -7.0874   -4.7439   -1.2527 H   0  0  0  0  0  0  0  0  0  0  0  0
    6.7333   -5.2838   -3.0692 H   0  0  0  0  0  0  0  0  0  0  0  0
    6.5327   -3.5785   -3.4566 H   0  0  0  0  0  0  0  0  0  0  0  0
    5.1581   -4.5555   -2.7746 H   0  0  0  0  0  0  0  0  0  0  0  0
   -3.2141   -2.1345    3.7929 H   0  0  0  0  0  0  0  0  0  0  0  0
   -3.6373   -0.6099    2.8973 H   0  0  0  0  0  0  0  0  0  0  0  0
   -4.4888   -2.1193    2.5814 H   0  0  0  0  0  0  0  0  0  0  0  0
  1 37  1  0  0  0  0
  1 43  1  0  0  0  0
  2 38  1  0  0  0  0
  2 44  1  0  0  0  0
  3  9  1  0  0  0  0
  3 12  1  0  0  0  0
  3 13  1  0  0  0  0
  4 14  1  0  0  0  0
  4 17  1  0  0  0  0
  4 18  1  0  0  0  0
  5  6  1  0  0  0  0
  5 15  1  0  0  0  0
  5 20  1  0  0  0  0
  6 19  2  0  0  0  0
  7  8  1  0  0  0  0
  7 10  1  0  0  0  0
  7 11  1  0  0  0  0
  7 45  1  0  0  0  0
  8 12  1  0  0  0  0
  8 15  1  0  0  0  0
  8 46  1  0  0  0  0
  9 10  1  0  0  0  0
  9 14  1  0  0  0  0
  9 47  1  0  0  0  0
 10 48  1  0  0  0  0
 10 49  1  0  0  0  0
 11 13  1  0  0  0  0
 11 50  1  0  0  0  0
 11 51  1  0  0  0  0
 12 52  1  0  0  0  0
 12 53  1  0  0  0  0
 13 54  1  0  0  0  0
 13 55  1  0  0  0  0
 14 56  1  0  0  0  0
 14 57  1  0  0  0  0
 15 16  2  0  0  0  0
 16 19  1  0  0  0  0
 16 58  1  0  0  0  0
 17 21  1  0  0  0  0
 17 59  1  0  0  0  0
 17 60  1  0  0  0  0
 18 22  1  0  0  0  0
 18 61  1  0  0  0  0
 18 62  1  0  0  0  0
 19 23  1  0  0  0  0
 20 63  1  0  0  0  0
 20 64  1  0  0  0  0
 20 65  1  0  0  0  0
 21 24  2  0  0  0  0
 21 26  1  0  0  0  0
 22 25  2  0  0  0  0
 22 27  1  0  0  0  0
 23 28  2  0  0  0  0
 23 29  1  0  0  0  0
 24 32  1  0  0  0  0
 24 66  1  0  0  0  0
 25 33  1  0  0  0  0
 25 67  1  0  0  0  0
 26 34  2  0  0  0  0
 26 68  1  0  0  0  0
 27 35  2  0  0  0  0
 27 69  1  0  0  0  0
 28 30  1  0  0  0  0
 28 70  1  0  0  0  0
 29 31  2  0  0  0  0
 29 71  1  0  0  0  0
 30 36  1  0  0  0  0
 30 39  2  0  0  0  0
 31 36  1  0  0  0  0
 31 72  1  0  0  0  0
 32 37  2  0  0  0  0
 32 73  1  0  0  0  0
 33 38  2  0  0  0  0
 33 74  1  0  0  0  0
 34 37  1  0  0  0  0
 34 75  1  0  0  0  0
 35 38  1  0  0  0  0
 35 76  1  0  0  0  0
 36 40  2  0  0  0  0
 39 41  1  0  0  0  0
 39 77  1  0  0  0  0
 40 42  1  0  0  0  0
 40 78  1  0  0  0  0
 41 42  2  0  0  0  0
 41 79  1  0  0  0  0
 42 80  1  0  0  0  0
 43 81  1  0  0  0  0
 43 82  1  0  0  0  0
 43 83  1  0  0  0  0
 44 84  1  0  0  0  0
 44 85  1  0  0  0  0
 44 86  1  0  0  0  0
M  END
> <PUBCHEM_COMPOUND_CID>
44715906

> <PUBCHEM_CONFORMER_RMSD>
1.2

> <PUBCHEM_CONFORMER_DIVERSEORDER>
2
46
56
43
77
79
22
27
78
88
6
17
15
7
89
35
34
51
95
58
61
97
29
52
86
3
87
60
23
41
40
14
16
70
21
90
42
101
36
98
96
62
18
11
33
50
48
45
9
13
100
10
74
69
38
39
24
80
84
5
71
44
68
20
73
32
25
19
55
63
83
75
99
85
72
53
8
4
82
26
91
92
59
30
76
67
65
1
64
94
28
37
12
81
54
47
93
66
57
49
31

> <PUBCHEM_MMFF94_PARTIAL_CHARGES>
55
1 -0.36
12 0.27
13 0.27
14 0.27
15 -0.33
16 -0.15
17 0.41
18 0.41
19 0.23
2 -0.36
20 0.26
21 -0.14
22 -0.14
23 0.05
24 -0.15
25 -0.15
26 -0.15
27 -0.15
28 -0.15
29 -0.15
3 -0.81
31 -0.15
32 -0.15
33 -0.15
34 -0.15
35 -0.15
37 0.08
38 0.08
39 -0.15
4 -0.81
40 -0.15
41 -0.15
42 -0.15
43 0.28
44 0.28
5 0.31
58 0.15
6 -0.71
66 0.15
67 0.15
68 0.15
69 0.15
70 0.15
71 0.15
72 0.15
73 0.15
74 0.15
75 0.15
76 0.15
77 0.15
78 0.15
79 0.15
8 0.18
80 0.15
9 0.27

> <PUBCHEM_EFFECTIVE_ROTOR_COUNT>
11.2

> <PUBCHEM_PHARMACOPHORE_FEATURES>
11
1 1 acceptor
1 2 acceptor
1 3 cation
1 4 cation
1 6 acceptor
5 5 6 15 16 19 rings
6 21 24 26 32 34 37 rings
6 22 25 27 33 35 38 rings
6 23 28 29 30 31 36 rings
6 30 36 39 40 41 42 rings
8 3 7 8 9 10 11 12 13 rings

> <PUBCHEM_HEAVY_ATOM_COUNT>
44

> <PUBCHEM_ATOM_DEF_STEREO_COUNT>
3

> <PUBCHEM_ATOM_UDEF_STEREO_COUNT>
0

> <PUBCHEM_BOND_DEF_STEREO_COUNT>
0

> <PUBCHEM_BOND_UDEF_STEREO_COUNT>
0

> <PUBCHEM_ISOTOPIC_ATOM_COUNT>
0

> <PUBCHEM_COMPONENT_COUNT>
1

> <PUBCHEM_CACTVS_TAUTO_COUNT>
1

> <PUBCHEM_CONFORMER_ID>
02AA4F8200000002

> <PUBCHEM_MMFF94_ENERGY>
141.7577

> <PUBCHEM_FEATURE_SELFOVERLAP>
55.852

> <PUBCHEM_SHAPE_FINGERPRINT>
10032420 55 17168693133740963397
10079526 769 18336556013547718568
11513181 2 18118970440712665886
11607047 403 18054214708175621072
117089 54 18413392016669744038
12107698 1 18336259123959483679
12645989 146 18410291415243637874
13383661 66 17988085466154985318
13782708 43 17917421021340679166
14040222 275 18261968408841928574
14068700 675 18410005541940594401
15001296 14 17898838304769516107
15160629 131 18197505227600545207
15705408 1 17748834016309557220
16067689 134 18044641015988893749
16067689 302 17682679881170084835
19311894 1 18265892454351821900
20775438 99 17973154320938571034
208703 8 18337096973801438535
21814621 53 17344613843776973224
23569914 2 13914041031784973478
25019877 29 17553729126686704810
437795 70 18263087630543910186
563151 248 18055934107858635329
563151 40 17401501347101630424
9831354 38 17969233398144462350

> <PUBCHEM_SHAPE_MULTIPOLES>
873.84
16.44
7.15
2.75
1.83
4.4
1.11
-24.55
-6.98
2.7
-4.76
0.9
-1.71
0

> <PUBCHEM_SHAPE_SELFOVERLAP>
1920.432

> <PUBCHEM_SHAPE_VOLUME>
471

> <PUBCHEM_COORDINATE_TYPE>
2
5
10

$$$$
