40777846
  -OEChem-12032416373D

 46 48  0     1  0  0  0  0  0999 V2000
    2.1973    0.0485   -0.6598 O   0  0  0  0  0  0  0  0  0  0  0  0
    2.6551    3.2608    0.8799 O   0  0  0  0  0  0  0  0  0  0  0  0
    4.1120    2.3353   -1.2623 O   0  0  0  0  0  0  0  0  0  0  0  0
   -0.5987    0.8600   -1.4139 O   0  0  0  0  0  0  0  0  0  0  0  0
    1.6351   -2.4519    0.8895 O   0  0  0  0  0  0  0  0  0  0  0  0
   -1.9362    0.4267    0.4489 N   0  0  0  0  0  0  0  0  0  0  0  0
    3.7251   -2.3039   -0.1292 N   0  0  0  0  0  0  0  0  0  0  0  0
    1.6720    1.2669   -0.1040 C   0  0  2  0  0  0  0  0  0  0  0  0
    2.8038    1.8671    0.7126 C   0  0  1  0  0  0  0  0  0  0  0  0
    4.0120    1.4879   -0.1184 C   0  0  1  0  0  0  0  0  0  0  0  0
    3.6414    0.0885   -0.5971 C   0  0  1  0  0  0  0  0  0  0  0  0
    0.4325    0.9614    0.7178 C   0  0  0  0  0  0  0  0  0  0  0  0
    4.0967   -1.0077    0.3564 C   0  0  0  0  0  0  0  0  0  0  0  0
   -0.7499    0.7457   -0.1973 C   0  0  0  0  0  0  0  0  0  0  0  0
   -2.1149    0.2901    1.9098 C   0  0  0  0  0  0  0  0  0  0  0  0
   -3.5802   -0.0761    2.1693 C   0  0  0  0  0  0  0  0  0  0  0  0
   -3.1768    0.1789   -0.1749 C   0  0  0  0  0  0  0  0  0  0  0  0
   -4.1457   -0.1129    0.7874 C   0  0  0  0  0  0  0  0  0  0  0  0
   -3.5029    0.1937   -1.5233 C   0  0  0  0  0  0  0  0  0  0  0  0
   -5.4553   -0.3953    0.4295 C   0  0  0  0  0  0  0  0  0  0  0  0
    2.5183   -2.9238    0.1783 C   0  0  0  0  0  0  0  0  0  0  0  0
   -4.8216   -0.0895   -1.8928 C   0  0  0  0  0  0  0  0  0  0  0  0
   -5.7914   -0.3821   -0.9239 C   0  0  0  0  0  0  0  0  0  0  0  0
    2.3723   -4.2683   -0.4825 C   0  0  0  0  0  0  0  0  0  0  0  0
    1.4364    1.9448   -0.9350 H   0  0  0  0  0  0  0  0  0  0  0  0
    2.8602    1.3950    1.7009 H   0  0  0  0  0  0  0  0  0  0  0  0
    4.9556    1.5510    0.4307 H   0  0  0  0  0  0  0  0  0  0  0  0
    4.0148   -0.1119   -1.6082 H   0  0  0  0  0  0  0  0  0  0  0  0
    0.2008    1.8078    1.3736 H   0  0  0  0  0  0  0  0  0  0  0  0
    0.5874    0.0630    1.3233 H   0  0  0  0  0  0  0  0  0  0  0  0
    3.6523   -0.8761    1.3491 H   0  0  0  0  0  0  0  0  0  0  0  0
    5.1864   -0.9976    0.4612 H   0  0  0  0  0  0  0  0  0  0  0  0
   -1.8474    1.2364    2.3929 H   0  0  0  0  0  0  0  0  0  0  0  0
   -1.4388   -0.4868    2.2834 H   0  0  0  0  0  0  0  0  0  0  0  0
    3.4646    3.5911    1.3054 H   0  0  0  0  0  0  0  0  0  0  0  0
   -4.0742    0.6845    2.7818 H   0  0  0  0  0  0  0  0  0  0  0  0
   -3.6620   -1.0518    2.6580 H   0  0  0  0  0  0  0  0  0  0  0  0
    4.8757    2.0322   -1.7825 H   0  0  0  0  0  0  0  0  0  0  0  0
    4.3779   -2.7811   -0.7442 H   0  0  0  0  0  0  0  0  0  0  0  0
   -2.7798    0.4153   -2.2985 H   0  0  0  0  0  0  0  0  0  0  0  0
   -6.2047   -0.6219    1.1805 H   0  0  0  0  0  0  0  0  0  0  0  0
   -5.0988   -0.0831   -2.9437 H   0  0  0  0  0  0  0  0  0  0  0  0
   -6.8106   -0.5999   -1.2307 H   0  0  0  0  0  0  0  0  0  0  0  0
    3.2950   -4.8466   -0.3800 H   0  0  0  0  0  0  0  0  0  0  0  0
    1.5579   -4.8239   -0.0094 H   0  0  0  0  0  0  0  0  0  0  0  0
    2.1461   -4.1282   -1.5429 H   0  0  0  0  0  0  0  0  0  0  0  0
  1  8  1  0  0  0  0
  1 11  1  0  0  0  0
  2  9  1  0  0  0  0
  2 35  1  0  0  0  0
  3 10  1  0  0  0  0
  3 38  1  0  0  0  0
  4 14  2  0  0  0  0
  5 21  2  0  0  0  0
  6 14  1  0  0  0  0
  6 15  1  0  0  0  0
  6 17  1  0  0  0  0
  7 13  1  0  0  0  0
  7 21  1  0  0  0  0
  7 39  1  0  0  0  0
  8  9  1  0  0  0  0
  8 12  1  0  0  0  0
  8 25  1  0  0  0  0
  9 10  1  0  0  0  0
  9 26  1  0  0  0  0
 10 11  1  0  0  0  0
 10 27  1  0  0  0  0
 11 13  1  0  0  0  0
 11 28  1  0  0  0  0
 12 14  1  0  0  0  0
 12 29  1  0  0  0  0
 12 30  1  0  0  0  0
 13 31  1  0  0  0  0
 13 32  1  0  0  0  0
 15 16  1  0  0  0  0
 15 33  1  0  0  0  0
 15 34  1  0  0  0  0
 16 18  1  0  0  0  0
 16 36  1  0  0  0  0
 16 37  1  0  0  0  0
 17 18  1  0  0  0  0
 17 19  2  0  0  0  0
 18 20  2  0  0  0  0
 19 22  1  0  0  0  0
 19 40  1  0  0  0  0
 20 23  1  0  0  0  0
 20 41  1  0  0  0  0
 21 24  1  0  0  0  0
 22 23  2  0  0  0  0
 22 42  1  0  0  0  0
 23 43  1  0  0  0  0
 24 44  1  0  0  0  0
 24 45  1  0  0  0  0
 24 46  1  0  0  0  0
M  END
> <PUBCHEM_COMPOUND_CID>
40777846

> <PUBCHEM_CONFORMER_RMSD>
1

> <PUBCHEM_CONFORMER_DIVERSEORDER>
1
108
13
213
47
188
106
134
176
85
206
82
192
204
131
41
198
214
46
73
55
175
209
3
171
19
45
217
6
68
107
115
84
52
12
165
153
87
197
5
48
150
103
66
28
88
49
189
127
43
30
211
145
180
89
136
183
15
200
207
81
50
210
126
79
51
113
114
97
215
90
109
216
208
67
36
64
202
44
121
93
170
25
205
60
186
151
98
69
139
184
117
65
195
24
191
162
99
110
78
158
123
56
22
163
23
100
167
42
70
74
185
196
102
76
129
190
219
112
119
10
94
8
7
125
156
194
18
58
199
132
26
149
27
141
166
128
57
92
80
91
161
148
63
62
178
201
147
142
173
11
168
77
17
21
138
14
137
220
38
159
144
160
124
135
193
203
34
146
61
130
179
75
4
133
172
111
143
140
35
104
96
53
164
187
2
54
169
33
40
116
157
71
118
20
95
37
39
212
122
174
59
154
72
86
83
120
182
16
29
9
177
105
155
181
31
152
32
101
218

> <PUBCHEM_MMFF94_PARTIAL_CHARGES>
31
1 -0.56
10 0.28
11 0.28
12 0.06
13 0.3
14 0.57
15 0.3
16 0.14
17 0.12
18 -0.14
19 -0.15
2 -0.68
20 -0.15
21 0.57
22 -0.15
23 -0.15
24 0.06
3 -0.68
35 0.4
38 0.4
39 0.37
4 -0.57
40 0.15
41 0.15
42 0.15
43 0.15
5 -0.57
6 -0.48
7 -0.73
8 0.28
9 0.28

> <PUBCHEM_EFFECTIVE_ROTOR_COUNT>
7.6

> <PUBCHEM_PHARMACOPHORE_FEATURES>
11
1 1 acceptor
1 2 acceptor
1 2 donor
1 3 acceptor
1 3 donor
1 4 acceptor
1 5 acceptor
1 7 donor
5 1 8 9 10 11 rings
5 6 15 16 17 18 rings
6 17 18 19 20 22 23 rings

> <PUBCHEM_HEAVY_ATOM_COUNT>
24

> <PUBCHEM_ATOM_DEF_STEREO_COUNT>
4

> <PUBCHEM_ATOM_UDEF_STEREO_COUNT>
0

> <PUBCHEM_BOND_DEF_STEREO_COUNT>
0

> <PUBCHEM_BOND_UDEF_STEREO_COUNT>
0

> <PUBCHEM_ISOTOPIC_ATOM_COUNT>
0

> <PUBCHEM_COMPONENT_COUNT>
1

> <PUBCHEM_CACTVS_TAUTO_COUNT>
2

> <PUBCHEM_CONFORMER_ID>
026E387600000001

> <PUBCHEM_MMFF94_ENERGY>
67.5801

> <PUBCHEM_FEATURE_SELFOVERLAP>
55.921

> <PUBCHEM_SHAPE_FINGERPRINT>
10366900 7 18335431161781655760
11595378 159 16558460899101780947
12107183 9 17695640558569261833
12236239 1 17417817270021872737
12596602 18 17203602688104946442
12730499 353 18335987583342602152
13167823 11 18060701706329724973
13533116 47 18342177761119415803
13583140 156 18269839873205024137
13911987 19 18118698831155015388
14251757 17 17676487190477712875
14386348 63 17676492748049160755
14508693 111 15909906389194034759
14573314 32 18040149604918805509
14659021 117 16317789610658365098
14848160 33 18262800636228665266
15250474 111 18059564811433744815
15375358 24 17458623441010856961
15635459 17 18114185189856878170
17134984 74 18126266757468591263
17138139 8 17628895005679192511
17349148 13 17346882264861126157
17818456 19 17485376577433628601
18681886 176 16056602113986217296
20511986 3 17560506378874194369
20645477 70 18333730208650596314
20775530 9 17759251695682727618
21033650 10 15647617731458396517
21285901 2 17821720620396514437
22182313 1 17458637704919098371
22224240 67 18200581606160382576
2255824 54 18342742948772124600
23557571 272 17167863045806914869
23559900 14 17458345242957179556
23596394 208 18113614551974962427
238 59 18334014978041549898
33824 294 18408884044928728234
345986 75 17845650335364988939
34797466 226 17313388971826131885
4098825 35 18337944603357240365
474 4 17914328241440468360
495365 180 18337946908889742320
573450 72 17060623283124958569
59682541 52 18266154190338705863
9709674 26 18115027385661670075
9981440 41 15762712740570536184

> <PUBCHEM_SHAPE_MULTIPOLES>
454.6
11.84
3.19
1.58
9.88
3.04
0.18
0.96
-2.15
-6.93
0.03
2.04
-0.23
-0.26

> <PUBCHEM_SHAPE_SELFOVERLAP>
965.548

> <PUBCHEM_SHAPE_VOLUME>
254.6

> <PUBCHEM_COORDINATE_TYPE>
2
5
10

$$$$
