51136652
  -OEChem-12032416143D

 64 66  0     1  0  0  0  0  0999 V2000
   -0.3776   -3.6910    1.0940 O   0  0  0  0  0  0  0  0  0  0  0  0
   -6.4860    1.9059    1.0985 O   0  0  0  0  0  0  0  0  0  0  0  0
   -6.5170   -0.2228    0.2930 O   0  0  0  0  0  0  0  0  0  0  0  0
    4.8563    2.3706    1.3481 O   0  0  0  0  0  0  0  0  0  0  0  0
   -1.5969   -2.1986   -0.2034 N   0  0  0  0  0  0  0  0  0  0  0  0
   -0.6671    1.9446   -1.8643 N   0  0  0  0  0  0  0  0  0  0  0  0
   -2.3495    0.1033   -0.7587 C   0  0  2  0  0  0  0  0  0  0  0  0
   -3.7154   -0.2253   -0.1038 C   0  0  1  0  0  0  0  0  0  0  0  0
   -3.5799   -1.3201    0.9680 C   0  0  0  0  0  0  0  0  0  0  0  0
   -1.6892   -1.1910   -1.2677 C   0  0  0  0  0  0  0  0  0  0  0  0
   -2.8743   -2.5549    0.4135 C   0  0  0  0  0  0  0  0  0  0  0  0
   -1.3866    0.8676    0.1582 C   0  0  0  0  0  0  0  0  0  0  0  0
   -4.4187    1.0052    0.4686 C   0  0  0  0  0  0  0  0  0  0  0  0
   -0.3401    1.5725   -0.6709 C   0  0  0  0  0  0  0  0  0  0  0  0
   -0.4244   -2.8273    0.2142 C   0  0  0  0  0  0  0  0  0  0  0  0
   -5.9017    0.7895    0.5924 C   0  0  0  0  0  0  0  0  0  0  0  0
    1.0058    1.7967   -0.0839 C   0  0  0  0  0  0  0  0  0  0  0  0
    0.8508   -2.4023   -0.4692 C   0  0  0  0  0  0  0  0  0  0  0  0
    2.0437    2.0871   -0.9784 C   0  0  0  0  0  0  0  0  0  0  0  0
    1.7375    2.1373   -2.4458 C   0  0  0  0  0  0  0  0  0  0  0  0
    0.3297    2.6827   -2.6473 C   0  0  0  0  0  0  0  0  0  0  0  0
    2.0362   -3.1721    0.0906 C   0  0  0  0  0  0  0  0  0  0  0  0
    1.2549    1.7137    1.2873 C   0  0  0  0  0  0  0  0  0  0  0  0
    3.3512   -2.8287   -0.6160 C   0  0  0  0  0  0  0  0  0  0  0  0
    3.3419    2.2688   -0.4934 C   0  0  0  0  0  0  0  0  0  0  0  0
    2.5515    1.9121    1.7637 C   0  0  0  0  0  0  0  0  0  0  0  0
    3.5926    2.1861    0.8763 C   0  0  0  0  0  0  0  0  0  0  0  0
    4.5142   -3.6434   -0.0490 C   0  0  0  0  0  0  0  0  0  0  0  0
    5.8150   -3.3362   -0.7734 C   0  0  0  0  0  0  0  0  0  0  0  0
    5.0432    2.2700    2.7590 C   0  0  0  0  0  0  0  0  0  0  0  0
   -2.5975    0.7082   -1.6399 H   0  0  0  0  0  0  0  0  0  0  0  0
   -4.3433   -0.6398   -0.9067 H   0  0  0  0  0  0  0  0  0  0  0  0
   -3.0074   -0.9335    1.8208 H   0  0  0  0  0  0  0  0  0  0  0  0
   -4.5612   -1.6164    1.3541 H   0  0  0  0  0  0  0  0  0  0  0  0
   -2.3055   -1.6323   -2.0613 H   0  0  0  0  0  0  0  0  0  0  0  0
   -0.7187   -0.9779   -1.7188 H   0  0  0  0  0  0  0  0  0  0  0  0
   -3.4890   -3.0327   -0.3587 H   0  0  0  0  0  0  0  0  0  0  0  0
   -2.7305   -3.2871    1.2143 H   0  0  0  0  0  0  0  0  0  0  0  0
   -0.9298    0.1909    0.8853 H   0  0  0  0  0  0  0  0  0  0  0  0
   -1.9042    1.6550    0.7154 H   0  0  0  0  0  0  0  0  0  0  0  0
   -4.0248    1.2607    1.4585 H   0  0  0  0  0  0  0  0  0  0  0  0
   -4.2759    1.8592   -0.2042 H   0  0  0  0  0  0  0  0  0  0  0  0
    0.7611   -2.6024   -1.5425 H   0  0  0  0  0  0  0  0  0  0  0  0
    1.0044   -1.3302   -0.3138 H   0  0  0  0  0  0  0  0  0  0  0  0
    2.4539    2.7769   -2.9733 H   0  0  0  0  0  0  0  0  0  0  0  0
    1.8185    1.1239   -2.8569 H   0  0  0  0  0  0  0  0  0  0  0  0
    0.0650    2.6091   -3.7078 H   0  0  0  0  0  0  0  0  0  0  0  0
    0.2784    3.7452   -2.3782 H   0  0  0  0  0  0  0  0  0  0  0  0
    1.8569   -4.2510   -0.0049 H   0  0  0  0  0  0  0  0  0  0  0  0
    2.1402   -2.9646    1.1635 H   0  0  0  0  0  0  0  0  0  0  0  0
    0.4644    1.5124    2.0033 H   0  0  0  0  0  0  0  0  0  0  0  0
    3.2514   -3.0280   -1.6899 H   0  0  0  0  0  0  0  0  0  0  0  0
    3.5593   -1.7576   -0.5035 H   0  0  0  0  0  0  0  0  0  0  0  0
    4.1582    2.4760   -1.1808 H   0  0  0  0  0  0  0  0  0  0  0  0
   -7.4566    1.7996    1.1931 H   0  0  0  0  0  0  0  0  0  0  0  0
    2.6794    1.8382    2.8384 H   0  0  0  0  0  0  0  0  0  0  0  0
    4.2987   -4.7144   -0.1396 H   0  0  0  0  0  0  0  0  0  0  0  0
    4.6352   -3.4258    1.0186 H   0  0  0  0  0  0  0  0  0  0  0  0
    6.0763   -2.2775   -0.6776 H   0  0  0  0  0  0  0  0  0  0  0  0
    6.6332   -3.9278   -0.3508 H   0  0  0  0  0  0  0  0  0  0  0  0
    5.7372   -3.5762   -1.8386 H   0  0  0  0  0  0  0  0  0  0  0  0
    4.8097    1.2645    3.1253 H   0  0  0  0  0  0  0  0  0  0  0  0
    6.1061    2.4429    2.9571 H   0  0  0  0  0  0  0  0  0  0  0  0
    4.4879    3.0471    3.2951 H   0  0  0  0  0  0  0  0  0  0  0  0
  1 15  2  0  0  0  0
  2 16  1  0  0  0  0
  2 55  1  0  0  0  0
  3 16  2  0  0  0  0
  4 27  1  0  0  0  0
  4 30  1  0  0  0  0
  5 10  1  0  0  0  0
  5 11  1  0  0  0  0
  5 15  1  0  0  0  0
  6 14  2  0  0  0  0
  6 21  1  0  0  0  0
  7  8  1  0  0  0  0
  7 10  1  0  0  0  0
  7 12  1  0  0  0  0
  7 31  1  0  0  0  0
  8  9  1  0  0  0  0
  8 13  1  0  0  0  0
  8 32  1  0  0  0  0
  9 11  1  0  0  0  0
  9 33  1  0  0  0  0
  9 34  1  0  0  0  0
 10 35  1  0  0  0  0
 10 36  1  0  0  0  0
 11 37  1  0  0  0  0
 11 38  1  0  0  0  0
 12 14  1  0  0  0  0
 12 39  1  0  0  0  0
 12 40  1  0  0  0  0
 13 16  1  0  0  0  0
 13 41  1  0  0  0  0
 13 42  1  0  0  0  0
 14 17  1  0  0  0  0
 15 18  1  0  0  0  0
 17 19  2  0  0  0  0
 17 23  1  0  0  0  0
 18 22  1  0  0  0  0
 18 43  1  0  0  0  0
 18 44  1  0  0  0  0
 19 20  1  0  0  0  0
 19 25  1  0  0  0  0
 20 21  1  0  0  0  0
 20 45  1  0  0  0  0
 20 46  1  0  0  0  0
 21 47  1  0  0  0  0
 21 48  1  0  0  0  0
 22 24  1  0  0  0  0
 22 49  1  0  0  0  0
 22 50  1  0  0  0  0
 23 26  2  0  0  0  0
 23 51  1  0  0  0  0
 24 28  1  0  0  0  0
 24 52  1  0  0  0  0
 24 53  1  0  0  0  0
 25 27  2  0  0  0  0
 25 54  1  0  0  0  0
 26 27  1  0  0  0  0
 26 56  1  0  0  0  0
 28 29  1  0  0  0  0
 28 57  1  0  0  0  0
 28 58  1  0  0  0  0
 29 59  1  0  0  0  0
 29 60  1  0  0  0  0
 29 61  1  0  0  0  0
 30 62  1  0  0  0  0
 30 63  1  0  0  0  0
 30 64  1  0  0  0  0
M  END
> <PUBCHEM_COMPOUND_CID>
51136652

> <PUBCHEM_CONFORMER_RMSD>
1

> <PUBCHEM_CONFORMER_DIVERSEORDER>
1
7
97
10
206
60
73
43
41
214
4
188
236
211
35
59
25
158
32
151
112
87
199
141
86
106
90
147
150
65
134
160
101
220
180
190
149
215
107
156
50
228
159
212
74
102
2
64
78
120
216
166
136
164
119
162
44
22
186
187
114
225
71
72
26
77
170
168
157
223
6
126
49
19
144
82
227
165
233
31
155
122
92
5
118
68
181
79
195
153
70
143
63
197
139
169
18
115
12
33
140
123
230
116
39
161
229
76
104
55
34
117
210
173
231
52
213
15
177
142
89
127
48
105
24
75
202
108
224
138
183
121
174
128
129
84
219
21
132
201
208
110
175
100
146
69
131
81
61
3
226
232
189
137
99
176
191
8
203
36
221
192
113
67
185
17
96
125
80
184
179
9
237
20
135
14
111
103
235
193
98
13
198
27
196
148
30
42
172
124
93
66
11
222
152
46
95
217
130
209
40
53
23
109
182
47
178
200
38
171
29
94
154
204
16
207
85
83
91
54
163
167
57
28
88
218
51
56
194
62
45
37
145
205
234
133
58

> <PUBCHEM_MMFF94_PARTIAL_CHARGES>
27
1 -0.57
10 0.3
11 0.3
12 0.06
13 0.06
14 0.3
15 0.57
16 0.66
17 0.09
18 0.06
19 -0.14
2 -0.65
20 0.14
21 0.25
23 -0.15
25 -0.15
26 -0.15
27 0.08
3 -0.57
30 0.28
4 -0.36
5 -0.66
51 0.15
54 0.15
55 0.5
56 0.15
6 -0.7

> <PUBCHEM_EFFECTIVE_ROTOR_COUNT>
11.6

> <PUBCHEM_PHARMACOPHORE_FEATURES>
11
1 1 acceptor
1 2 acceptor
1 29 hydrophobe
1 3 acceptor
1 4 acceptor
1 6 acceptor
3 2 3 16 anion
4 18 22 24 28 hydrophobe
6 17 19 23 25 26 27 rings
6 5 7 8 9 10 11 rings
6 6 14 17 19 20 21 rings

> <PUBCHEM_HEAVY_ATOM_COUNT>
30

> <PUBCHEM_ATOM_DEF_STEREO_COUNT>
2

> <PUBCHEM_ATOM_UDEF_STEREO_COUNT>
0

> <PUBCHEM_BOND_DEF_STEREO_COUNT>
0

> <PUBCHEM_BOND_UDEF_STEREO_COUNT>
0

> <PUBCHEM_ISOTOPIC_ATOM_COUNT>
0

> <PUBCHEM_COMPONENT_COUNT>
1

> <PUBCHEM_CACTVS_TAUTO_COUNT>
1

> <PUBCHEM_CONFORMER_ID>
030C488C00000001

> <PUBCHEM_MMFF94_ENERGY>
72.3698

> <PUBCHEM_FEATURE_SELFOVERLAP>
55.904

> <PUBCHEM_SHAPE_FINGERPRINT>
11049842 53 18189914156325344380
11513181 2 18059289976181367158
12156800 1 13481984664235804504
12422481 6 18262498369652352632
13140716 1 18409732850673287243
13726171 33 17685241729423086317
14178342 30 18194119844431294799
14725015 67 18116145563407680178
14955137 171 17985555446643442031
15064986 96 17895486933098318817
15840311 113 18200312118447996217
15927050 60 18270119144531761566
17980427 26 17630301233832870184
20554085 129 18201994465569648689
22182313 1 17969486139884934229
23559900 14 18260558801218751751
5265222 85 17835249213924777228
7064713 232 18265606774385694944

> <PUBCHEM_SHAPE_MULTIPOLES>
583.95
11.71
5.35
1.96
9.25
4.26
-0.27
0.05
5.3
-7.43
-0.15
-1.91
-2.21
2.03

> <PUBCHEM_SHAPE_SELFOVERLAP>
1210.395

> <PUBCHEM_SHAPE_VOLUME>
330.9

> <PUBCHEM_COORDINATE_TYPE>
2
5
10

$$$$
