38028541
  -OEChem-12032416243D

 64 66  0     1  0  0  0  0  0999 V2000
   -2.7769   -5.9025    0.6832 F   0  0  0  0  0  0  0  0  0  0  0  0
    2.6758    2.6073    1.4209 O   0  0  0  0  0  0  0  0  0  0  0  0
   -4.2563   -1.1603   -0.3668 O   0  0  0  0  0  0  0  0  0  0  0  0
   -2.4027   -0.3023   -1.4685 N   0  0  0  0  0  0  0  0  0  0  0  0
    2.3967    0.3217    1.7363 N   0  0  0  0  0  0  0  0  0  0  0  0
    6.0119    0.3070   -1.0942 N   0  0  0  0  0  0  0  0  0  0  0  0
   -2.4688    2.2545    0.1133 C   0  0  1  0  0  0  0  0  0  0  0  0
   -2.3098    2.1345   -1.4230 C   0  0  1  0  0  0  0  0  0  0  0  0
   -1.4274    3.2281    0.6857 C   0  0  0  0  0  0  0  0  0  0  0  0
    0.0154    2.7854    0.3775 C   0  0  2  0  0  0  0  0  0  0  0  0
   -3.8772    2.7120    0.5053 C   0  0  0  0  0  0  0  0  0  0  0  0
    0.1850    2.3906   -1.0756 C   0  0  0  0  0  0  0  0  0  0  0  0
   -0.8663    2.1165   -1.8683 C   0  0  0  0  0  0  0  0  0  0  0  0
   -3.0246    0.8881   -1.9574 C   0  0  0  0  0  0  0  0  0  0  0  0
    0.4561    1.6511    1.3093 C   0  0  0  0  0  0  0  0  0  0  0  0
   -3.9999    4.2268    0.3753 C   0  0  0  0  0  0  0  0  0  0  0  0
   -4.2069    2.2623    1.9251 C   0  0  0  0  0  0  0  0  0  0  0  0
    1.5899    2.3624   -1.6100 C   0  0  0  0  0  0  0  0  0  0  0  0
    1.9569    1.6139    1.4894 C   0  0  0  0  0  0  0  0  0  0  0  0
   -3.0773   -1.2495   -0.6989 C   0  0  0  0  0  0  0  0  0  0  0  0
    3.7867   -0.0121    1.9465 C   0  0  0  0  0  0  0  0  0  0  0  0
   -2.2822   -2.4198   -0.2460 C   0  0  0  0  0  0  0  0  0  0  0  0
    4.4842   -0.3499    0.6606 C   0  0  0  0  0  0  0  0  0  0  0  0
   -2.9154   -3.6357    0.0112 C   0  0  0  0  0  0  0  0  0  0  0  0
   -0.9023   -2.3026   -0.0777 C   0  0  0  0  0  0  0  0  0  0  0  0
    4.2759   -1.5724    0.0318 C   0  0  0  0  0  0  0  0  0  0  0  0
    5.3541    0.5473    0.0622 C   0  0  0  0  0  0  0  0  0  0  0  0
   -2.1690   -4.7347    0.4364 C   0  0  0  0  0  0  0  0  0  0  0  0
   -0.1558   -3.4016    0.3477 C   0  0  0  0  0  0  0  0  0  0  0  0
   -0.7890   -4.6177    0.6046 C   0  0  0  0  0  0  0  0  0  0  0  0
    4.9347   -1.8564   -1.1594 C   0  0  0  0  0  0  0  0  0  0  0  0
    5.7844   -0.8918   -1.6764 C   0  0  0  0  0  0  0  0  0  0  0  0
   -2.2833    1.2721    0.5660 H   0  0  0  0  0  0  0  0  0  0  0  0
   -2.7679    3.0055   -1.9083 H   0  0  0  0  0  0  0  0  0  0  0  0
   -1.5474    3.3584    1.7672 H   0  0  0  0  0  0  0  0  0  0  0  0
   -1.5365    4.2223    0.2334 H   0  0  0  0  0  0  0  0  0  0  0  0
    0.6373    3.6721    0.5611 H   0  0  0  0  0  0  0  0  0  0  0  0
   -4.6240    2.2540   -0.1513 H   0  0  0  0  0  0  0  0  0  0  0  0
   -0.6871    1.8833   -2.9162 H   0  0  0  0  0  0  0  0  0  0  0  0
   -4.0911    0.8943   -1.7168 H   0  0  0  0  0  0  0  0  0  0  0  0
   -2.9529    0.8521   -3.0514 H   0  0  0  0  0  0  0  0  0  0  0  0
    0.0863    0.6859    0.9460 H   0  0  0  0  0  0  0  0  0  0  0  0
    0.0400    1.7960    2.3143 H   0  0  0  0  0  0  0  0  0  0  0  0
   -3.6738    4.5954   -0.6018 H   0  0  0  0  0  0  0  0  0  0  0  0
   -3.4681    4.7707    1.1632 H   0  0  0  0  0  0  0  0  0  0  0  0
   -5.0543    4.5120    0.4770 H   0  0  0  0  0  0  0  0  0  0  0  0
   -3.5324    2.7000    2.6673 H   0  0  0  0  0  0  0  0  0  0  0  0
   -4.1479    1.1722    2.0138 H   0  0  0  0  0  0  0  0  0  0  0  0
   -5.2273    2.5586    2.1927 H   0  0  0  0  0  0  0  0  0  0  0  0
    2.1415    1.5048   -1.2156 H   0  0  0  0  0  0  0  0  0  0  0  0
    1.6070    2.2826   -2.7026 H   0  0  0  0  0  0  0  0  0  0  0  0
    2.1223    3.2821   -1.3473 H   0  0  0  0  0  0  0  0  0  0  0  0
   -1.4554   -0.4907   -1.7797 H   0  0  0  0  0  0  0  0  0  0  0  0
    1.7245   -0.4394    1.7657 H   0  0  0  0  0  0  0  0  0  0  0  0
    3.8237   -0.8694    2.6283 H   0  0  0  0  0  0  0  0  0  0  0  0
    4.2854    0.8234    2.4513 H   0  0  0  0  0  0  0  0  0  0  0  0
   -3.9886   -3.7478   -0.1179 H   0  0  0  0  0  0  0  0  0  0  0  0
   -0.3750   -1.3688   -0.2452 H   0  0  0  0  0  0  0  0  0  0  0  0
    3.6026   -2.3096    0.4604 H   0  0  0  0  0  0  0  0  0  0  0  0
    5.5564    1.5187    0.5027 H   0  0  0  0  0  0  0  0  0  0  0  0
    0.9178   -3.3089    0.4843 H   0  0  0  0  0  0  0  0  0  0  0  0
   -0.2083   -5.4730    0.9369 H   0  0  0  0  0  0  0  0  0  0  0  0
    4.7872   -2.8025   -1.6673 H   0  0  0  0  0  0  0  0  0  0  0  0
    6.3216   -1.0642   -2.6031 H   0  0  0  0  0  0  0  0  0  0  0  0
  1 28  1  0  0  0  0
  2 19  2  0  0  0  0
  3 20  2  0  0  0  0
  4 14  1  0  0  0  0
  4 20  1  0  0  0  0
  4 53  1  0  0  0  0
  5 19  1  0  0  0  0
  5 21  1  0  0  0  0
  5 54  1  0  0  0  0
  6 27  1  0  0  0  0
  6 32  2  0  0  0  0
  7  8  1  0  0  0  0
  7  9  1  0  0  0  0
  7 11  1  0  0  0  0
  7 33  1  0  0  0  0
  8 13  1  0  0  0  0
  8 14  1  0  0  0  0
  8 34  1  0  0  0  0
  9 10  1  0  0  0  0
  9 35  1  0  0  0  0
  9 36  1  0  0  0  0
 10 12  1  0  0  0  0
 10 15  1  0  0  0  0
 10 37  1  0  0  0  0
 11 16  1  0  0  0  0
 11 17  1  0  0  0  0
 11 38  1  0  0  0  0
 12 13  2  0  0  0  0
 12 18  1  0  0  0  0
 13 39  1  0  0  0  0
 14 40  1  0  0  0  0
 14 41  1  0  0  0  0
 15 19  1  0  0  0  0
 15 42  1  0  0  0  0
 15 43  1  0  0  0  0
 16 44  1  0  0  0  0
 16 45  1  0  0  0  0
 16 46  1  0  0  0  0
 17 47  1  0  0  0  0
 17 48  1  0  0  0  0
 17 49  1  0  0  0  0
 18 50  1  0  0  0  0
 18 51  1  0  0  0  0
 18 52  1  0  0  0  0
 20 22  1  0  0  0  0
 21 23  1  0  0  0  0
 21 55  1  0  0  0  0
 21 56  1  0  0  0  0
 22 24  2  0  0  0  0
 22 25  1  0  0  0  0
 23 26  1  0  0  0  0
 23 27  2  0  0  0  0
 24 28  1  0  0  0  0
 24 57  1  0  0  0  0
 25 29  2  0  0  0  0
 25 58  1  0  0  0  0
 26 31  2  0  0  0  0
 26 59  1  0  0  0  0
 27 60  1  0  0  0  0
 28 30  2  0  0  0  0
 29 30  1  0  0  0  0
 29 61  1  0  0  0  0
 30 62  1  0  0  0  0
 31 32  1  0  0  0  0
 31 63  1  0  0  0  0
 32 64  1  0  0  0  0
M  END
> <PUBCHEM_COMPOUND_CID>
38028541

> <PUBCHEM_CONFORMER_RMSD>
1.2

> <PUBCHEM_CONFORMER_DIVERSEORDER>
26
99
100
8
68
2
54
65
124
45
59
118
94
63
117
82
53
88
81
97
38
3
85
13
104
98
37
129
28
89
39
72
113
111
122
30
69
12
11
93
56
43
60
51
115
9
121
66
95
49
55
42
86
4
128
109
40
7
74
34
103
47
67
41
50
126
5
31
36
78
52
79
87
123
91
125
110
84
15
23
1
80
106
76
119
14
35
127
116
29
57
90
108
32
64
114
102
25
75
73
44
19
58
62
96
17
24
71
107
46
27
48
16
112
33
10
105
83
120
18
92
22
20
61
6
77
70
21
101

> <PUBCHEM_MMFF94_PARTIAL_CHARGES>
38
1 -0.19
10 0.14
12 -0.28
13 -0.29
14 0.3
15 0.06
18 0.14
19 0.57
2 -0.57
20 0.54
21 0.44
22 0.09
23 -0.14
24 -0.15
25 -0.15
26 -0.15
27 0.16
28 0.19
29 -0.15
3 -0.57
30 -0.15
31 -0.15
32 0.16
39 0.15
4 -0.73
5 -0.73
53 0.37
54 0.37
57 0.15
58 0.15
59 0.15
6 -0.62
60 0.15
61 0.15
62 0.15
63 0.15
64 0.15
8 0.14

> <PUBCHEM_EFFECTIVE_ROTOR_COUNT>
10.8

> <PUBCHEM_PHARMACOPHORE_FEATURES>
9
1 2 acceptor
1 3 acceptor
1 4 donor
1 5 donor
1 6 acceptor
3 11 16 17 hydrophobe
6 22 24 25 28 29 30 rings
6 6 23 26 27 31 32 rings
6 7 8 9 10 12 13 rings

> <PUBCHEM_HEAVY_ATOM_COUNT>
32

> <PUBCHEM_ATOM_DEF_STEREO_COUNT>
3

> <PUBCHEM_ATOM_UDEF_STEREO_COUNT>
0

> <PUBCHEM_BOND_DEF_STEREO_COUNT>
0

> <PUBCHEM_BOND_UDEF_STEREO_COUNT>
0

> <PUBCHEM_ISOTOPIC_ATOM_COUNT>
0

> <PUBCHEM_COMPONENT_COUNT>
1

> <PUBCHEM_CACTVS_TAUTO_COUNT>
4

> <PUBCHEM_CONFORMER_ID>
024444FD0000001A

> <PUBCHEM_MMFF94_ENERGY>
70.0866

> <PUBCHEM_FEATURE_SELFOVERLAP>
45.671

> <PUBCHEM_SHAPE_FINGERPRINT>
107951 10 18199466567387152301
10928967 22 18113888334907722648
11014199 57 18121503723861167362
11059048 146 18337952264830303362
12147406 95 17689147237674425190
12156800 1 17684135423335726771
13008946 113 17115244567813968689
14020679 6 17987807297580009737
14114211 68 17833291734717482222
14114211 80 18267592299211961883
14251757 5 18408042939908446622
14840074 17 17823428097414331652
15320294 125 17464490336309859378
15361156 5 18129091393912354644
15927050 60 18126839397042006405
161222 10 18187661171744114382
17627616 140 17906447732102450691
17909252 39 18050855721642906448
19319366 153 17908420260204569454
20764821 26 18050546474806533154
20775530 9 17975403938851120291
22889206 1 17119194040083103561
4058900 60 17765441941662241689
4435113 14 17917164831479590166
508706 21 18343021090469169590
5265222 85 18338808814347753412

> <PUBCHEM_SHAPE_MULTIPOLES>
624.59
10.73
7.06
1.85
15.49
10.85
0.12
-2.64
1.35
-8.68
-1.65
0.5
-1.17
0.18

> <PUBCHEM_SHAPE_SELFOVERLAP>
1311.831

> <PUBCHEM_SHAPE_VOLUME>
351.8

> <PUBCHEM_COORDINATE_TYPE>
2
5
10

$$$$
