11865838
  -OEChem-12032416123D

 66 68  0     1  0  0  0  0  0999 V2000
    6.0598    1.8272    1.0332 F   0  0  0  0  0  0  0  0  0  0  0  0
    8.1845   -1.1664   -1.9504 F   0  0  0  0  0  0  0  0  0  0  0  0
   -3.0552    0.4608    1.0227 O   0  0  0  0  0  0  0  0  0  0  0  0
   -1.8601    4.5594    1.5543 O   0  0  0  0  0  0  0  0  0  0  0  0
    1.9938   -1.0067   -0.0237 O   0  0  0  0  0  0  0  0  0  0  0  0
   -2.5982   -0.0999   -3.5114 O   0  0  0  0  0  0  0  0  0  0  0  0
   -1.1902    2.3518    1.3734 N   0  0  0  0  0  0  0  0  0  0  0  0
    1.4591    0.6816    1.4622 N   0  0  0  0  0  0  0  0  0  0  0  0
   -1.9405   -0.3489   -0.8538 N   0  0  0  0  0  0  0  0  0  0  0  0
    3.6209    0.5196    0.7069 N   0  0  0  0  0  0  0  0  0  0  0  0
   -4.7357   -0.7746   -3.0087 N   0  0  0  0  0  0  0  0  0  0  0  0
    0.0620    0.3453    1.6026 C   0  0  2  0  0  0  0  0  0  0  0  0
   -0.8030    1.1505    0.6286 C   0  0  1  0  0  0  0  0  0  0  0  0
   -0.4674    0.7630    2.9756 C   0  0  0  0  0  0  0  0  0  0  0  0
   -0.8437    2.2249    2.7841 C   0  0  0  0  0  0  0  0  0  0  0  0
   -2.0613    0.4012    0.3035 C   0  0  0  0  0  0  0  0  0  0  0  0
   -1.6816    3.5466    0.8770 C   0  0  0  0  0  0  0  0  0  0  0  0
   -3.0035   -1.1792   -1.3722 C   0  0  2  0  0  0  0  0  0  0  0  0
    2.3391   -0.0339    0.6426 C   0  0  0  0  0  0  0  0  0  0  0  0
   -2.0113    3.5949   -0.5609 C   0  0  0  0  0  0  0  0  0  0  0  0
   -2.5786   -2.6454   -1.5110 C   0  0  0  0  0  0  0  0  0  0  0  0
   -3.3955   -0.6105   -2.7281 C   0  0  0  0  0  0  0  0  0  0  0  0
   -3.2304    3.8606   -1.0599 C   0  0  0  0  0  0  0  0  0  0  0  0
   -2.6146   -3.3905   -0.1989 C   0  0  0  0  0  0  0  0  0  0  0  0
    4.7865    0.0906    0.0303 C   0  0  0  0  0  0  0  0  0  0  0  0
   -4.3778    4.1363   -0.1224 C   0  0  0  0  0  0  0  0  0  0  0  0
   -3.6044    3.9186   -2.5151 C   0  0  0  0  0  0  0  0  0  0  0  0
   -1.4834   -3.4215    0.6168 C   0  0  0  0  0  0  0  0  0  0  0  0
   -3.7791   -4.0477    0.1985 C   0  0  0  0  0  0  0  0  0  0  0  0
    5.9920    0.7679    0.2144 C   0  0  0  0  0  0  0  0  0  0  0  0
    4.7290   -1.0114   -0.8230 C   0  0  0  0  0  0  0  0  0  0  0  0
   -1.5166   -4.1098    1.8296 C   0  0  0  0  0  0  0  0  0  0  0  0
   -3.8122   -4.7359    1.4114 C   0  0  0  0  0  0  0  0  0  0  0  0
   -2.6809   -4.7669    2.2269 C   0  0  0  0  0  0  0  0  0  0  0  0
    7.1399    0.3432   -0.4549 C   0  0  0  0  0  0  0  0  0  0  0  0
    5.8766   -1.4361   -1.4922 C   0  0  0  0  0  0  0  0  0  0  0  0
    7.0821   -0.7589   -1.3081 C   0  0  0  0  0  0  0  0  0  0  0  0
   -0.0436   -0.7353    1.4624 H   0  0  0  0  0  0  0  0  0  0  0  0
   -0.2731    1.4360   -0.2864 H   0  0  0  0  0  0  0  0  0  0  0  0
   -1.3664    0.1830    3.2170 H   0  0  0  0  0  0  0  0  0  0  0  0
    0.2509    0.6238    3.7894 H   0  0  0  0  0  0  0  0  0  0  0  0
    0.0051    2.8889    2.9831 H   0  0  0  0  0  0  0  0  0  0  0  0
   -1.6834    2.5353    3.4134 H   0  0  0  0  0  0  0  0  0  0  0  0
    1.8069    1.5140    1.9284 H   0  0  0  0  0  0  0  0  0  0  0  0
   -1.0751   -0.3050   -1.3847 H   0  0  0  0  0  0  0  0  0  0  0  0
   -3.8706   -1.1005   -0.7043 H   0  0  0  0  0  0  0  0  0  0  0  0
   -1.1939    3.3743   -1.2415 H   0  0  0  0  0  0  0  0  0  0  0  0
   -1.5731   -2.7176   -1.9475 H   0  0  0  0  0  0  0  0  0  0  0  0
   -3.2357   -3.1659   -2.2209 H   0  0  0  0  0  0  0  0  0  0  0  0
    3.7415    1.3286    1.3112 H   0  0  0  0  0  0  0  0  0  0  0  0
   -4.6254    5.2027   -0.1367 H   0  0  0  0  0  0  0  0  0  0  0  0
   -4.1989    3.8382    0.9138 H   0  0  0  0  0  0  0  0  0  0  0  0
   -5.2642    3.5784   -0.4459 H   0  0  0  0  0  0  0  0  0  0  0  0
   -4.3601    3.1614   -2.7471 H   0  0  0  0  0  0  0  0  0  0  0  0
   -2.7365    3.7326   -3.1563 H   0  0  0  0  0  0  0  0  0  0  0  0
   -4.0039    4.9057   -2.7685 H   0  0  0  0  0  0  0  0  0  0  0  0
   -0.5690   -2.9174    0.3163 H   0  0  0  0  0  0  0  0  0  0  0  0
   -4.6677   -4.0286   -0.4269 H   0  0  0  0  0  0  0  0  0  0  0  0
   -5.1266   -0.4511   -3.8873 H   0  0  0  0  0  0  0  0  0  0  0  0
   -5.3786   -1.2199   -2.3617 H   0  0  0  0  0  0  0  0  0  0  0  0
    3.8350   -1.5865   -1.0174 H   0  0  0  0  0  0  0  0  0  0  0  0
   -0.6355   -4.1340    2.4642 H   0  0  0  0  0  0  0  0  0  0  0  0
   -4.7191   -5.2470    1.7213 H   0  0  0  0  0  0  0  0  0  0  0  0
   -2.7068   -5.3026    3.1714 H   0  0  0  0  0  0  0  0  0  0  0  0
    8.0785    0.8700   -0.3114 H   0  0  0  0  0  0  0  0  0  0  0  0
    5.8335   -2.2939   -2.1570 H   0  0  0  0  0  0  0  0  0  0  0  0
  1 30  1  0  0  0  0
  2 37  1  0  0  0  0
  3 16  2  0  0  0  0
  4 17  2  0  0  0  0
  5 19  2  0  0  0  0
  6 22  2  0  0  0  0
  7 13  1  0  0  0  0
  7 15  1  0  0  0  0
  7 17  1  0  0  0  0
  8 12  1  0  0  0  0
  8 19  1  0  0  0  0
  8 44  1  0  0  0  0
  9 16  1  0  0  0  0
  9 18  1  0  0  0  0
  9 45  1  0  0  0  0
 10 19  1  0  0  0  0
 10 25  1  0  0  0  0
 10 50  1  0  0  0  0
 11 22  1  0  0  0  0
 11 59  1  0  0  0  0
 11 60  1  0  0  0  0
 12 13  1  0  0  0  0
 12 14  1  0  0  0  0
 12 38  1  0  0  0  0
 13 16  1  0  0  0  0
 13 39  1  0  0  0  0
 14 15  1  0  0  0  0
 14 40  1  0  0  0  0
 14 41  1  0  0  0  0
 15 42  1  0  0  0  0
 15 43  1  0  0  0  0
 17 20  1  0  0  0  0
 18 21  1  0  0  0  0
 18 22  1  0  0  0  0
 18 46  1  0  0  0  0
 20 23  2  0  0  0  0
 20 47  1  0  0  0  0
 21 24  1  0  0  0  0
 21 48  1  0  0  0  0
 21 49  1  0  0  0  0
 23 26  1  0  0  0  0
 23 27  1  0  0  0  0
 24 28  2  0  0  0  0
 24 29  1  0  0  0  0
 25 30  2  0  0  0  0
 25 31  1  0  0  0  0
 26 51  1  0  0  0  0
 26 52  1  0  0  0  0
 26 53  1  0  0  0  0
 27 54  1  0  0  0  0
 27 55  1  0  0  0  0
 27 56  1  0  0  0  0
 28 32  1  0  0  0  0
 28 57  1  0  0  0  0
 29 33  2  0  0  0  0
 29 58  1  0  0  0  0
 30 35  1  0  0  0  0
 31 36  2  0  0  0  0
 31 61  1  0  0  0  0
 32 34  2  0  0  0  0
 32 62  1  0  0  0  0
 33 34  1  0  0  0  0
 33 63  1  0  0  0  0
 34 64  1  0  0  0  0
 35 37  2  0  0  0  0
 35 65  1  0  0  0  0
 36 37  1  0  0  0  0
 36 66  1  0  0  0  0
M  END
> <PUBCHEM_COMPOUND_CID>
11865838

> <PUBCHEM_CONFORMER_RMSD>
1.2

> <PUBCHEM_CONFORMER_DIVERSEORDER>
1
12
97
60
83
107
63
45
51
55
66
61
31
86
23
48
92
50
54
40
105
29
58
28
49
47
65
102
82
46
39
78
34
69
19
8
24
67
57
77
75
74
95
94
72
4
56
16
62
38
37
52
42
70
59
30
88
73
104
36
25
33
44
93
85
79
11
21
15
101
26
68
80
43
5
108
64
9
35
89
6
98
3
14
22
100
87
7
96
71
81
84
32
53
27
99
106
18
41
13
91
103
90
20
76
10
17
2

> <PUBCHEM_MMFF94_PARTIAL_CHARGES>
50
1 -0.19
10 -0.55
11 -0.8
12 0.3
13 0.36
15 0.3
16 0.57
17 0.62
18 0.36
19 0.69
2 -0.19
20 -0.14
21 0.14
22 0.57
23 -0.28
24 -0.14
25 0.12
26 0.14
27 0.14
28 -0.15
29 -0.15
3 -0.57
30 0.19
31 -0.15
32 -0.15
33 -0.15
34 -0.15
35 -0.15
36 -0.15
37 0.19
4 -0.57
44 0.37
45 0.37
47 0.15
5 -0.57
50 0.37
57 0.15
58 0.15
59 0.37
6 -0.57
60 0.37
61 0.15
62 0.15
63 0.15
64 0.15
65 0.15
66 0.15
7 -0.66
8 -0.73
9 -0.73

> <PUBCHEM_EFFECTIVE_ROTOR_COUNT>
13

> <PUBCHEM_PHARMACOPHORE_FEATURES>
12
1 10 donor
1 11 donor
1 3 acceptor
1 4 acceptor
1 5 acceptor
1 6 acceptor
1 8 donor
1 9 donor
3 23 26 27 hydrophobe
5 7 12 13 14 15 rings
6 24 28 29 32 33 34 rings
6 25 30 31 35 36 37 rings

> <PUBCHEM_HEAVY_ATOM_COUNT>
37

> <PUBCHEM_ATOM_DEF_STEREO_COUNT>
3

> <PUBCHEM_ATOM_UDEF_STEREO_COUNT>
0

> <PUBCHEM_BOND_DEF_STEREO_COUNT>
0

> <PUBCHEM_BOND_UDEF_STEREO_COUNT>
0

> <PUBCHEM_ISOTOPIC_ATOM_COUNT>
0

> <PUBCHEM_COMPONENT_COUNT>
1

> <PUBCHEM_CACTVS_TAUTO_COUNT>
12

> <PUBCHEM_CONFORMER_ID>
00B50EEE00000001

> <PUBCHEM_MMFF94_ENERGY>
93.8388

> <PUBCHEM_FEATURE_SELFOVERLAP>
60.95

> <PUBCHEM_SHAPE_FINGERPRINT>
11434127 23 18410295848235456766
11488393 25 17398108738778835449
11607047 141 17323821323336303371
11991303 11 18335992951946058142
12788726 201 18339905061757621259
14114211 68 17830983899230611565
15064986 266 18271535259936914852
15361156 5 18060145357772926404
15463212 79 18265609875425877272
19301676 85 17264712222234653182
19309040 13 15719935926715906367
21716022 299 17610359494402736893
21772528 278 18196949772249620829
23536364 44 18263077867893842650
4058900 60 17907868301273152577
437795 70 17915994976951299829
437815 12 18195813105287223843
44802255 64 18043543711008228708
484985 159 18341061799372199579
5080951 261 18059858346704944458
563151 40 18269269076567970717

> <PUBCHEM_SHAPE_MULTIPOLES>
698.51
14.38
7.04
2.97
43.46
1.36
0.87
2.37
9.14
-15.14
-2.5
-2.83
-0.32
2.92

> <PUBCHEM_SHAPE_SELFOVERLAP>
1477.157

> <PUBCHEM_SHAPE_VOLUME>
390.7

> <PUBCHEM_COORDINATE_TYPE>
2
5
10

$$$$
