11913096
  -OEChem-12032416123D

 67 72  0     1  0  0  0  0  0999 V2000
    2.2035    1.3390   -1.8702 O   0  0  0  0  0  0  0  0  0  0  0  0
    0.1570   -0.8783   -1.3152 O   0  0  0  0  0  0  0  0  0  0  0  0
    3.7369   -0.8691   -1.1819 O   0  0  0  0  0  0  0  0  0  0  0  0
    4.5599   -0.7045    0.9453 O   0  0  0  0  0  0  0  0  0  0  0  0
   11.0693   -0.8914    1.3300 O   0  0  0  0  0  0  0  0  0  0  0  0
   -0.3661    2.7087   -0.7805 N   0  0  0  0  0  0  0  0  0  0  0  0
   -2.4878    2.0194   -0.1353 N   0  0  0  0  0  0  0  0  0  0  0  0
   -1.5761    4.1222    0.6090 N   0  0  0  0  0  0  0  0  0  0  0  0
    5.9749   -0.9192   -0.9072 N   0  0  0  0  0  0  0  0  0  0  0  0
    0.3782    0.4000   -0.6829 C   0  0  1  0  0  0  0  0  0  0  0  0
    1.8767    0.6274   -0.6654 C   0  0  1  0  0  0  0  0  0  0  0  0
   -0.1496    1.5097   -1.5616 C   0  0  2  0  0  0  0  0  0  0  0  0
    2.4216   -0.7806   -0.6825 C   0  0  1  0  0  0  0  0  0  0  0  0
    0.9921    1.7182   -2.5414 C   0  0  0  0  0  0  0  0  0  0  0  0
    1.4271   -1.4964   -1.5685 C   0  0  0  0  0  0  0  0  0  0  0  0
   -1.5272    2.9610   -0.0713 C   0  0  0  0  0  0  0  0  0  0  0  0
    4.7598   -0.8196   -0.2577 C   0  0  0  0  0  0  0  0  0  0  0  0
   -3.6056    2.2978    0.5671 C   0  0  0  0  0  0  0  0  0  0  0  0
   -2.7219    4.3361    1.2887 C   0  0  0  0  0  0  0  0  0  0  0  0
   -3.7804    3.4510    1.3046 C   0  0  0  0  0  0  0  0  0  0  0  0
    7.2690   -0.9111   -0.3386 C   0  0  0  0  0  0  0  0  0  0  0  0
   -4.6372    1.2905    0.5018 C   0  0  0  0  0  0  0  0  0  0  0  0
    7.4235   -0.7921    1.0425 C   0  0  0  0  0  0  0  0  0  0  0  0
    8.3916   -1.0232   -1.1590 C   0  0  0  0  0  0  0  0  0  0  0  0
   -5.8953    1.6128   -0.0070 C   0  0  0  0  0  0  0  0  0  0  0  0
   -4.3759   -0.0054    0.9473 C   0  0  0  0  0  0  0  0  0  0  0  0
   -6.8921    0.6393   -0.0708 C   0  0  0  0  0  0  0  0  0  0  0  0
   -5.3729   -0.9790    0.8835 C   0  0  0  0  0  0  0  0  0  0  0  0
   -6.6309   -0.6566    0.3745 C   0  0  0  0  0  0  0  0  0  0  0  0
    8.7007   -0.7852    1.6035 C   0  0  0  0  0  0  0  0  0  0  0  0
    9.6687   -1.0162   -0.5982 C   0  0  0  0  0  0  0  0  0  0  0  0
    9.8233   -0.8974    0.7830 C   0  0  0  0  0  0  0  0  0  0  0  0
   -7.6646   -1.6668    0.3081 C   0  0  0  0  0  0  0  0  0  0  0  0
   -8.5336   -1.8469    1.3843 C   0  0  0  0  0  0  0  0  0  0  0  0
   -7.7928   -2.4600   -0.8321 C   0  0  0  0  0  0  0  0  0  0  0  0
   -9.5305   -2.8205    1.3205 C   0  0  0  0  0  0  0  0  0  0  0  0
   -8.7898   -3.4335   -0.8959 C   0  0  0  0  0  0  0  0  0  0  0  0
   -9.6587   -3.6137    0.1805 C   0  0  0  0  0  0  0  0  0  0  0  0
   11.1552   -0.7667    2.7488 C   0  0  0  0  0  0  0  0  0  0  0  0
   -0.0601    0.3509    0.3188 H   0  0  0  0  0  0  0  0  0  0  0  0
    2.2290    1.2254    0.1800 H   0  0  0  0  0  0  0  0  0  0  0  0
   -1.0535    1.2393   -2.1194 H   0  0  0  0  0  0  0  0  0  0  0  0
    2.3355   -1.2172    0.3221 H   0  0  0  0  0  0  0  0  0  0  0  0
    0.8863    1.0591   -3.4103 H   0  0  0  0  0  0  0  0  0  0  0  0
    1.0856    2.7470   -2.9026 H   0  0  0  0  0  0  0  0  0  0  0  0
    1.6661   -1.3908   -2.6326 H   0  0  0  0  0  0  0  0  0  0  0  0
    1.3658   -2.5660   -1.3462 H   0  0  0  0  0  0  0  0  0  0  0  0
    0.3808    3.3886   -0.6944 H   0  0  0  0  0  0  0  0  0  0  0  0
    5.9376   -1.0094   -1.9196 H   0  0  0  0  0  0  0  0  0  0  0  0
   -2.7664    5.2694    1.8398 H   0  0  0  0  0  0  0  0  0  0  0  0
   -4.6795    3.6638    1.8696 H   0  0  0  0  0  0  0  0  0  0  0  0
    6.6011   -0.7014    1.7387 H   0  0  0  0  0  0  0  0  0  0  0  0
    8.2851   -1.1166   -2.2367 H   0  0  0  0  0  0  0  0  0  0  0  0
   -6.1180    2.6154   -0.3646 H   0  0  0  0  0  0  0  0  0  0  0  0
   -3.4022   -0.2747    1.3498 H   0  0  0  0  0  0  0  0  0  0  0  0
   -7.8669    0.9068   -0.4717 H   0  0  0  0  0  0  0  0  0  0  0  0
   -5.1527   -1.9841    1.2353 H   0  0  0  0  0  0  0  0  0  0  0  0
    8.7499   -0.6899    2.6829 H   0  0  0  0  0  0  0  0  0  0  0  0
   10.5395   -1.1039   -1.2422 H   0  0  0  0  0  0  0  0  0  0  0  0
   -8.4477   -1.2371    2.2807 H   0  0  0  0  0  0  0  0  0  0  0  0
   -7.1239   -2.3327   -1.6800 H   0  0  0  0  0  0  0  0  0  0  0  0
  -10.2071   -2.9608    2.1585 H   0  0  0  0  0  0  0  0  0  0  0  0
   -8.8898   -4.0513   -1.7836 H   0  0  0  0  0  0  0  0  0  0  0  0
  -10.4349   -4.3717    0.1307 H   0  0  0  0  0  0  0  0  0  0  0  0
   12.2183   -0.7797    3.0106 H   0  0  0  0  0  0  0  0  0  0  0  0
   10.6906   -1.6188    3.2565 H   0  0  0  0  0  0  0  0  0  0  0  0
   10.7529    0.1918    3.0937 H   0  0  0  0  0  0  0  0  0  0  0  0
  1 11  1  0  0  0  0
  1 14  1  0  0  0  0
  2 10  1  0  0  0  0
  2 15  1  0  0  0  0
  3 13  1  0  0  0  0
  3 17  1  0  0  0  0
  4 17  2  0  0  0  0
  5 32  1  0  0  0  0
  5 39  1  0  0  0  0
  6 12  1  0  0  0  0
  6 16  1  0  0  0  0
  6 48  1  0  0  0  0
  7 16  1  0  0  0  0
  7 18  2  0  0  0  0
  8 16  2  0  0  0  0
  8 19  1  0  0  0  0
  9 17  1  0  0  0  0
  9 21  1  0  0  0  0
  9 49  1  0  0  0  0
 10 11  1  0  0  0  0
 10 12  1  0  0  0  0
 10 40  1  0  0  0  0
 11 13  1  0  0  0  0
 11 41  1  0  0  0  0
 12 14  1  0  0  0  0
 12 42  1  0  0  0  0
 13 15  1  0  0  0  0
 13 43  1  0  0  0  0
 14 44  1  0  0  0  0
 14 45  1  0  0  0  0
 15 46  1  0  0  0  0
 15 47  1  0  0  0  0
 18 20  1  0  0  0  0
 18 22  1  0  0  0  0
 19 20  2  0  0  0  0
 19 50  1  0  0  0  0
 20 51  1  0  0  0  0
 21 23  2  0  0  0  0
 21 24  1  0  0  0  0
 22 25  2  0  0  0  0
 22 26  1  0  0  0  0
 23 30  1  0  0  0  0
 23 52  1  0  0  0  0
 24 31  2  0  0  0  0
 24 53  1  0  0  0  0
 25 27  1  0  0  0  0
 25 54  1  0  0  0  0
 26 28  2  0  0  0  0
 26 55  1  0  0  0  0
 27 29  2  0  0  0  0
 27 56  1  0  0  0  0
 28 29  1  0  0  0  0
 28 57  1  0  0  0  0
 29 33  1  0  0  0  0
 30 32  2  0  0  0  0
 30 58  1  0  0  0  0
 31 32  1  0  0  0  0
 31 59  1  0  0  0  0
 33 34  2  0  0  0  0
 33 35  1  0  0  0  0
 34 36  1  0  0  0  0
 34 60  1  0  0  0  0
 35 37  2  0  0  0  0
 35 61  1  0  0  0  0
 36 38  2  0  0  0  0
 36 62  1  0  0  0  0
 37 38  1  0  0  0  0
 37 63  1  0  0  0  0
 38 64  1  0  0  0  0
 39 65  1  0  0  0  0
 39 66  1  0  0  0  0
 39 67  1  0  0  0  0
M  END
> <PUBCHEM_COMPOUND_CID>
11913096

> <PUBCHEM_CONFORMER_RMSD>
1.2

> <PUBCHEM_CONFORMER_DIVERSEORDER>
1
8
38
102
91
66
89
93
106
26
43
71
49
11
40
73
12
77
16
85
78
60
76
14
44
65
92
68
75
18
80
25
41
54
116
37
34
97
58
90
45
57
74
59
13
51
99
27
32
63
101
28
22
107
31
110
88
33
20
84
69
30
53
56
112
55
113
23
98
36
6
87
109
52
114
42
39
64
19
48
103
29
100
82
62
17
108
9
94
50
105
2
111
104
86
10
67
4
81
83
79
115
35
70
72
21
61
95
46
15
96
7
3
5
47
24

> <PUBCHEM_MMFF94_PARTIAL_CHARGES>
53
1 -0.56
10 0.28
11 0.28
12 0.37
13 0.28
14 0.28
15 0.28
16 0.72
17 0.78
18 0.31
19 0.16
2 -0.56
20 -0.15
21 0.12
23 -0.15
24 -0.15
25 -0.15
26 -0.15
27 -0.15
28 -0.15
3 -0.43
30 -0.15
31 -0.15
32 0.08
34 -0.15
35 -0.15
36 -0.15
37 -0.15
38 -0.15
39 0.28
4 -0.57
48 0.4
49 0.37
5 -0.36
50 0.15
51 0.15
52 0.15
53 0.15
54 0.15
55 0.15
56 0.15
57 0.15
58 0.15
59 0.15
6 -0.87
60 0.15
61 0.15
62 0.15
63 0.15
64 0.15
7 -0.62
8 -0.62
9 -0.55

> <PUBCHEM_EFFECTIVE_ROTOR_COUNT>
10.2

> <PUBCHEM_PHARMACOPHORE_FEATURES>
14
1 1 acceptor
1 2 acceptor
1 4 acceptor
1 5 acceptor
1 6 donor
1 7 acceptor
1 9 donor
4 6 7 8 16 cation
5 1 10 11 12 14 rings
5 2 10 11 13 15 rings
6 21 23 24 30 31 32 rings
6 22 25 26 27 28 29 rings
6 33 34 35 36 37 38 rings
6 7 8 16 18 19 20 rings

> <PUBCHEM_HEAVY_ATOM_COUNT>
39

> <PUBCHEM_ATOM_DEF_STEREO_COUNT>
4

> <PUBCHEM_ATOM_UDEF_STEREO_COUNT>
0

> <PUBCHEM_BOND_DEF_STEREO_COUNT>
0

> <PUBCHEM_BOND_UDEF_STEREO_COUNT>
0

> <PUBCHEM_ISOTOPIC_ATOM_COUNT>
0

> <PUBCHEM_COMPONENT_COUNT>
1

> <PUBCHEM_CACTVS_TAUTO_COUNT>
6

> <PUBCHEM_CONFORMER_ID>
00B5C78800000001

> <PUBCHEM_MMFF94_ENERGY>
142.0356

> <PUBCHEM_FEATURE_SELFOVERLAP>
71.765

> <PUBCHEM_SHAPE_FINGERPRINT>
10100884 174 18336265729636003219
10258705 36 17843699776517254678
10674148 151 7925908167126071166
10952577 141 9367349236801751099
11135609 99 18335145340466944439
11146346 171 18059866014049905598
11211813 128 18272094881338629246
11409948 8 18060413643310993722
11411753 3 17487073153976981468
11478447 62 17458335347584963290
11621639 179 9583251504320849267
1200032 147 10303824163883321637
12013929 112 7925914785965852368
12144600 37 18057893429458674894
12539745 222 17894625942368387991
12838863 1 18335702784610155347
13165054 146 9151174285434486159
13740195 50 18272080588140453504
13974486 7 18268145552100848615
14068700 675 18334018302557493437
15145343 16 11023821821313193563
15274700 256 18411417333057908402
15350500 16 18259985994020038891
15684389 69 18040433261939375946
16992610 120 9655578526152598458
16992727 255 9367340440170918143
17686467 74 18201998815717274641
19302320 297 13758355592054323706
19303781 99 18337670945142198975
21130935 74 18196938760807860406
21133410 127 10230944135391008115
21360443 89 18186796985801328322
21792965 131 17603579695896421266
21792965 184 18200878478173142358
21792965 270 17703494598456318536
21987483 16 18336548342810273616
22002106 203 18271241733688751551
2835820 33 18412825794262154210
3986486 107 13623522468608645631
3991529 128 11455895789115574635
4173938 188 18411696595804780002
42767 23 17240756294589237531
4339292 15 17675918802863690270
4403749 210 18128814149051617373
44575985 266 8718829821725459095
44575985 74 8934717752870654707
4760202 70 18041290937075549284
57676310 115 9655305847005366982
5874358 3 18040719173163343252
6698420 124 13038889046132721004

> <PUBCHEM_SHAPE_MULTIPOLES>
753.33
39.9
4.31
1.84
57.44
3.45
0.04
-45.01
19.77
-12.98
0.8
3.19
0.05
-1.39

> <PUBCHEM_SHAPE_SELFOVERLAP>
1665.436

> <PUBCHEM_SHAPE_VOLUME>
403.5

> <PUBCHEM_COORDINATE_TYPE>
2
5
10

$$$$
