45783724
  -OEChem-12032416263D

 49 52  0     1  0  0  0  0  0999 V2000
   -1.2713    1.9710    1.8026 O   0  0  0  0  0  0  0  0  0  0  0  0
    4.3820   -3.4941   -0.6992 O   0  0  0  0  0  0  0  0  0  0  0  0
    1.5735    1.9729   -0.5241 N   0  0  1  0  0  0  0  0  0  0  0  0
    3.4381   -1.6975    0.4316 N   0  0  0  0  0  0  0  0  0  0  0  0
   -1.2116    0.9514   -0.1908 N   0  0  0  0  0  0  0  0  0  0  0  0
   -2.3895    1.1285    1.7624 N   0  0  0  0  0  0  0  0  0  0  0  0
   -3.8149   -2.3066   -1.2744 N   0  0  0  0  0  0  0  0  0  0  0  0
   -1.5839   -1.5193   -1.2741 N   0  0  0  0  0  0  0  0  0  0  0  0
   -5.4999   -1.2106    0.0547 N   0  0  0  0  0  0  0  0  0  0  0  0
    2.4561    1.0092    0.1291 C   0  0  0  0  0  0  0  0  0  0  0  0
    0.6273    2.6196    0.4069 C   0  0  1  0  0  0  0  0  0  0  0  0
    2.3197    3.0522   -1.1711 C   0  0  0  0  0  0  0  0  0  0  0  0
    0.3480    4.0000   -0.2156 C   0  0  0  0  0  0  0  0  0  0  0  0
    3.3987    0.3756   -0.9022 C   0  0  0  0  0  0  0  0  0  0  0  0
    1.6261   -0.0725    0.8326 C   0  0  0  0  0  0  0  0  0  0  0  0
    1.2263    4.0615   -1.4572 C   0  0  0  0  0  0  0  0  0  0  0  0
    4.2653   -0.7047   -0.2572 C   0  0  0  0  0  0  0  0  0  0  0  0
    2.5281   -1.1452    1.4429 C   0  0  0  0  0  0  0  0  0  0  0  0
   -0.6330    1.8061    0.6144 C   0  0  0  0  0  0  0  0  0  0  0  0
    3.5836   -3.0513    0.1305 C   0  0  0  0  0  0  0  0  0  0  0  0
    2.6935   -4.0097    0.8807 C   0  0  0  0  0  0  0  0  0  0  0  0
   -2.2847    0.5620    0.5566 C   0  0  0  0  0  0  0  0  0  0  0  0
   -3.2354   -0.3947    0.0683 C   0  0  0  0  0  0  0  0  0  0  0  0
   -2.9203   -1.4071   -0.8150 C   0  0  0  0  0  0  0  0  0  0  0  0
   -4.5537   -0.3446    0.4733 C   0  0  0  0  0  0  0  0  0  0  0  0
   -5.0679   -2.1522   -0.8056 C   0  0  0  0  0  0  0  0  0  0  0  0
    3.0692    1.5170    0.8879 H   0  0  0  0  0  0  0  0  0  0  0  0
    1.1007    2.7893    1.3846 H   0  0  0  0  0  0  0  0  0  0  0  0
    3.0749    3.4900   -0.5062 H   0  0  0  0  0  0  0  0  0  0  0  0
    2.7958    2.7449   -2.1069 H   0  0  0  0  0  0  0  0  0  0  0  0
   -0.7036    4.1641   -0.4746 H   0  0  0  0  0  0  0  0  0  0  0  0
    0.6486    4.7883    0.4854 H   0  0  0  0  0  0  0  0  0  0  0  0
    4.0719    1.1169   -1.3461 H   0  0  0  0  0  0  0  0  0  0  0  0
    2.8162   -0.0715   -1.7188 H   0  0  0  0  0  0  0  0  0  0  0  0
    0.9486   -0.5596    0.1215 H   0  0  0  0  0  0  0  0  0  0  0  0
    1.0443    0.3295    1.6658 H   0  0  0  0  0  0  0  0  0  0  0  0
    1.6191    5.0667   -1.6363 H   0  0  0  0  0  0  0  0  0  0  0  0
    0.6467    3.7597   -2.3385 H   0  0  0  0  0  0  0  0  0  0  0  0
    4.8903   -1.1798   -1.0200 H   0  0  0  0  0  0  0  0  0  0  0  0
    4.9373   -0.2641    0.4889 H   0  0  0  0  0  0  0  0  0  0  0  0
    3.1512   -0.7146    2.2360 H   0  0  0  0  0  0  0  0  0  0  0  0
    1.9106   -1.9183    1.9036 H   0  0  0  0  0  0  0  0  0  0  0  0
    2.8982   -5.0322    0.5487 H   0  0  0  0  0  0  0  0  0  0  0  0
    2.8957   -3.9531    1.9535 H   0  0  0  0  0  0  0  0  0  0  0  0
    1.6425   -3.7892    0.6752 H   0  0  0  0  0  0  0  0  0  0  0  0
   -4.9225    0.4110    1.1607 H   0  0  0  0  0  0  0  0  0  0  0  0
   -1.0376   -0.6752   -1.3899 H   0  0  0  0  0  0  0  0  0  0  0  0
   -1.3928   -2.2839   -1.9108 H   0  0  0  0  0  0  0  0  0  0  0  0
   -5.8071   -2.8610   -1.1582 H   0  0  0  0  0  0  0  0  0  0  0  0
  1  6  1  0  0  0  0
  1 19  1  0  0  0  0
  2 20  2  0  0  0  0
  3 10  1  0  0  0  0
  3 11  1  0  0  0  0
  3 12  1  0  0  0  0
  4 17  1  0  0  0  0
  4 18  1  0  0  0  0
  4 20  1  0  0  0  0
  5 19  2  0  0  0  0
  5 22  1  0  0  0  0
  6 22  2  0  0  0  0
  7 24  2  0  0  0  0
  7 26  1  0  0  0  0
  8 24  1  0  0  0  0
  8 47  1  0  0  0  0
  8 48  1  0  0  0  0
  9 25  1  0  0  0  0
  9 26  2  0  0  0  0
 10 14  1  0  0  0  0
 10 15  1  0  0  0  0
 10 27  1  0  0  0  0
 11 13  1  0  0  0  0
 11 19  1  0  0  0  0
 11 28  1  0  0  0  0
 12 16  1  0  0  0  0
 12 29  1  0  0  0  0
 12 30  1  0  0  0  0
 13 16  1  0  0  0  0
 13 31  1  0  0  0  0
 13 32  1  0  0  0  0
 14 17  1  0  0  0  0
 14 33  1  0  0  0  0
 14 34  1  0  0  0  0
 15 18  1  0  0  0  0
 15 35  1  0  0  0  0
 15 36  1  0  0  0  0
 16 37  1  0  0  0  0
 16 38  1  0  0  0  0
 17 39  1  0  0  0  0
 17 40  1  0  0  0  0
 18 41  1  0  0  0  0
 18 42  1  0  0  0  0
 20 21  1  0  0  0  0
 21 43  1  0  0  0  0
 21 44  1  0  0  0  0
 21 45  1  0  0  0  0
 22 23  1  0  0  0  0
 23 24  1  0  0  0  0
 23 25  2  0  0  0  0
 25 46  1  0  0  0  0
 26 49  1  0  0  0  0
M  END
> <PUBCHEM_COMPOUND_CID>
45783724

> <PUBCHEM_CONFORMER_RMSD>
0.8

> <PUBCHEM_CONFORMER_DIVERSEORDER>
1
86
134
129
110
91
14
45
138
49
108
100
130
124
51
137
52
63
136
42
93
9
67
24
101
36
99
112
118
19
127
131
4
119
21
32
135
20
126
33
8
96
84
111
26
133
53
107
105
122
68
65
77
90
117
125
66
7
88
28
87
35
31
121
132
116
57
62
92
47
69
12
18
73
48
29
95
106
40
58
30
5
82
22
81
114
70
34
37
97
27
43
46
56
61
98
85
55
120
102
71
74
39
72
104
59
115
75
13
15
6
109
128
76
38
123
78
60
2
83
11
50
79
103
25
89
44
80
10
94
54
113
3
41
16
64
17
23

> <PUBCHEM_MMFF94_PARTIAL_CHARGES>
26
1 -0.02
10 0.27
11 0.45
12 0.27
17 0.3
18 0.3
19 0.3
2 -0.57
20 0.57
21 0.06
22 0.46
23 0.05
24 0.41
25 0.16
26 0.47
3 -0.81
4 -0.66
46 0.15
47 0.4
48 0.4
49 0.15
5 -0.57
6 -0.41
7 -0.62
8 -0.9
9 -0.62

> <PUBCHEM_EFFECTIVE_ROTOR_COUNT>
6.2

> <PUBCHEM_PHARMACOPHORE_FEATURES>
10
1 2 acceptor
1 3 cation
1 8 donor
3 5 6 22 cation
3 7 8 24 cation
3 7 9 26 cation
5 1 5 6 19 22 rings
5 3 11 12 13 16 rings
6 4 10 14 15 17 18 rings
6 7 9 23 24 25 26 rings

> <PUBCHEM_HEAVY_ATOM_COUNT>
26

> <PUBCHEM_ATOM_DEF_STEREO_COUNT>
1

> <PUBCHEM_ATOM_UDEF_STEREO_COUNT>
0

> <PUBCHEM_BOND_DEF_STEREO_COUNT>
0

> <PUBCHEM_BOND_UDEF_STEREO_COUNT>
0

> <PUBCHEM_ISOTOPIC_ATOM_COUNT>
0

> <PUBCHEM_COMPONENT_COUNT>
1

> <PUBCHEM_CACTVS_TAUTO_COUNT>
11

> <PUBCHEM_CONFORMER_ID>
02BA9AAC00000001

> <PUBCHEM_MMFF94_ENERGY>
57.0855

> <PUBCHEM_FEATURE_SELFOVERLAP>
50.884

> <PUBCHEM_SHAPE_FINGERPRINT>
10042902 136 18200041612417066870
107951 10 16094625059861651896
11069576 57 18198610223806781687
11552529 35 17982732970472561776
11578080 2 18271789220926983976
12107183 9 18269565957729710985
12553582 1 18409161104352127954
12788726 201 17630350703619276209
13004483 165 18119803616901877640
13009979 54 18130517335696701498
13533116 47 18195243537231849559
13690498 29 17905344931178631174
13911987 19 17825132508653330756
14114206 34 17170126841406163954
14117953 113 18054792772028468095
14863182 85 18195798803114264672
15403338 16 18409162182732454223
15537594 2 18340506485832979298
15842332 3 18127437681127395985
17138139 8 17338433823249466551
17818456 19 18202011980325293825
17974551 9 14975762130542434606
1813 80 18408595950953798979
19319366 153 17837488926982372077
20028762 73 18270121340040200036
20291156 8 18412822465055760410
20645477 70 18042965574282596153
20775438 99 17613951328534945844
20775530 9 18339914914186173654
21033648 29 14045480950693358067
22033318 11 18054260699043662809
2255824 54 18191303994989406796
235170 7 17388519786852574143
23559900 14 18266451186815598691
238 59 17970915689542029680
3004659 81 18270965764400626149
3027735 51 17333063353335598677
3680242 22 18272382979460670235
4409770 3 17543064581077720220
46194498 28 17676765495641971901
463206 1 18335143111020461882
484985 159 17540522531653879534
563151 97 18192730052876131668
56633871 153 18054237526993570675

> <PUBCHEM_SHAPE_MULTIPOLES>
488.46
9.45
5.33
1.35
8.71
0.93
-0.17
-9.89
1.61
-5.55
1.1
0.25
0.27
-2.13

> <PUBCHEM_SHAPE_SELFOVERLAP>
1047.465

> <PUBCHEM_SHAPE_VOLUME>
268.1

> <PUBCHEM_COORDINATE_TYPE>
2
5
10

$$$$
