71693615
  -OEChem-12032416233D

 38 39  0     1  0  0  0  0  0999 V2000
    1.8195   -1.6036    0.3140 O   0  0  0  0  0  0  0  0  0  0  0  0
    2.0832    2.4872    0.9186 O   0  0  0  0  0  0  0  0  0  0  0  0
    5.3488   -1.1192    0.2571 O   0  0  0  0  0  0  0  0  0  0  0  0
   -5.1943    0.4702    1.3244 O   0  0  0  0  0  0  0  0  0  0  0  0
    3.6589    0.3631   -0.3595 N   0  0  0  0  0  0  0  0  0  0  0  0
   -4.2197   -0.2623   -0.6935 N   0  0  0  0  0  0  0  0  0  0  0  0
    2.2075    0.6048   -0.5475 C   0  0  1  0  0  0  0  0  0  0  0  0
    1.3697   -0.2523    0.4212 C   0  0  1  0  0  0  0  0  0  0  0  0
   -0.1154   -0.2545    0.1245 C   0  0  0  0  0  0  0  0  0  0  0  0
    1.8364    2.0888   -0.4144 C   0  0  0  0  0  0  0  0  0  0  0  0
    3.1252   -1.7381    0.8214 C   0  0  0  0  0  0  0  0  0  0  0  0
    4.1547   -0.8182    0.1958 C   0  0  0  0  0  0  0  0  0  0  0  0
    4.5970    1.2848   -0.9945 C   0  0  0  0  0  0  0  0  0  0  0  0
   -1.0239    0.1296    1.1109 C   0  0  0  0  0  0  0  0  0  0  0  0
   -0.5751   -0.6408   -1.1345 C   0  0  0  0  0  0  0  0  0  0  0  0
   -2.3918    0.1272    0.8385 C   0  0  0  0  0  0  0  0  0  0  0  0
   -1.9431   -0.6435   -1.4070 C   0  0  0  0  0  0  0  0  0  0  0  0
   -2.8513   -0.2595   -0.4205 C   0  0  0  0  0  0  0  0  0  0  0  0
   -5.2732    0.0873    0.1616 C   0  0  0  0  0  0  0  0  0  0  0  0
   -6.6131   -0.0512   -0.5166 C   0  0  0  0  0  0  0  0  0  0  0  0
    2.0211    0.2935   -1.5830 H   0  0  0  0  0  0  0  0  0  0  0  0
    1.5270    0.0736    1.4587 H   0  0  0  0  0  0  0  0  0  0  0  0
    0.7774    2.2538   -0.6375 H   0  0  0  0  0  0  0  0  0  0  0  0
    2.4129    2.7252   -1.0921 H   0  0  0  0  0  0  0  0  0  0  0  0
    3.4417   -2.7708    0.6414 H   0  0  0  0  0  0  0  0  0  0  0  0
    3.1234   -1.5740    1.9053 H   0  0  0  0  0  0  0  0  0  0  0  0
    4.3140    1.4151   -2.0431 H   0  0  0  0  0  0  0  0  0  0  0  0
    5.6226    0.9083   -0.9561 H   0  0  0  0  0  0  0  0  0  0  0  0
    4.5682    2.2448   -0.4726 H   0  0  0  0  0  0  0  0  0  0  0  0
   -0.6797    0.4337    2.0959 H   0  0  0  0  0  0  0  0  0  0  0  0
    0.1142   -0.9549   -1.9132 H   0  0  0  0  0  0  0  0  0  0  0  0
   -3.0332    0.4369    1.6517 H   0  0  0  0  0  0  0  0  0  0  0  0
   -2.2874   -0.9496   -2.3917 H   0  0  0  0  0  0  0  0  0  0  0  0
    1.8338    3.4243    0.9897 H   0  0  0  0  0  0  0  0  0  0  0  0
   -4.4741   -0.5571   -1.6340 H   0  0  0  0  0  0  0  0  0  0  0  0
   -6.6660    0.6283   -1.3719 H   0  0  0  0  0  0  0  0  0  0  0  0
   -7.4122    0.1991    0.1866 H   0  0  0  0  0  0  0  0  0  0  0  0
   -6.7518   -1.0808   -0.8582 H   0  0  0  0  0  0  0  0  0  0  0  0
  1  8  1  0  0  0  0
  1 11  1  0  0  0  0
  2 10  1  0  0  0  0
  2 34  1  0  0  0  0
  3 12  2  0  0  0  0
  4 19  2  0  0  0  0
  5  7  1  0  0  0  0
  5 12  1  0  0  0  0
  5 13  1  0  0  0  0
  6 18  1  0  0  0  0
  6 19  1  0  0  0  0
  6 35  1  0  0  0  0
  7  8  1  0  0  0  0
  7 10  1  0  0  0  0
  7 21  1  0  0  0  0
  8  9  1  0  0  0  0
  8 22  1  0  0  0  0
  9 14  2  0  0  0  0
  9 15  1  0  0  0  0
 10 23  1  0  0  0  0
 10 24  1  0  0  0  0
 11 12  1  0  0  0  0
 11 25  1  0  0  0  0
 11 26  1  0  0  0  0
 13 27  1  0  0  0  0
 13 28  1  0  0  0  0
 13 29  1  0  0  0  0
 14 16  1  0  0  0  0
 14 30  1  0  0  0  0
 15 17  2  0  0  0  0
 15 31  1  0  0  0  0
 16 18  2  0  0  0  0
 16 32  1  0  0  0  0
 17 18  1  0  0  0  0
 17 33  1  0  0  0  0
 19 20  1  0  0  0  0
 20 36  1  0  0  0  0
 20 37  1  0  0  0  0
 20 38  1  0  0  0  0
M  END
> <PUBCHEM_COMPOUND_CID>
71693615

> <PUBCHEM_CONFORMER_RMSD>
0.8

> <PUBCHEM_CONFORMER_DIVERSEORDER>
1
8
11
5
9
4
6
10
2
7
3

> <PUBCHEM_MMFF94_PARTIAL_CHARGES>
26
1 -0.56
10 0.28
11 0.34
12 0.57
13 0.3
14 -0.15
15 -0.15
16 -0.15
17 -0.15
18 0.12
19 0.57
2 -0.68
20 0.06
3 -0.57
30 0.15
31 0.15
32 0.15
33 0.15
34 0.4
35 0.37
4 -0.57
5 -0.66
6 -0.55
7 0.3
8 0.42
9 -0.14

> <PUBCHEM_EFFECTIVE_ROTOR_COUNT>
5

> <PUBCHEM_PHARMACOPHORE_FEATURES>
8
1 1 acceptor
1 2 acceptor
1 2 donor
1 3 acceptor
1 4 acceptor
1 6 donor
6 1 5 7 8 11 12 rings
6 9 14 15 16 17 18 rings

> <PUBCHEM_HEAVY_ATOM_COUNT>
20

> <PUBCHEM_ATOM_DEF_STEREO_COUNT>
2

> <PUBCHEM_ATOM_UDEF_STEREO_COUNT>
0

> <PUBCHEM_BOND_DEF_STEREO_COUNT>
0

> <PUBCHEM_BOND_UDEF_STEREO_COUNT>
0

> <PUBCHEM_ISOTOPIC_ATOM_COUNT>
0

> <PUBCHEM_COMPONENT_COUNT>
1

> <PUBCHEM_CACTVS_TAUTO_COUNT>
6

> <PUBCHEM_CONFORMER_ID>
0445F52F00000001

> <PUBCHEM_MMFF94_ENERGY>
58.5462

> <PUBCHEM_FEATURE_SELFOVERLAP>
40.598

> <PUBCHEM_SHAPE_FINGERPRINT>
10354089 29 18411983567864478903
11045977 3 17967819375083830259
11287383 113 17676210182182567811
11471102 20 18259705610107134484
12107183 9 17688870831196161491
12236239 1 18202845443796713658
12403259 415 16877935036344141335
12730499 353 17676211272840575634
13533116 47 18408884005741578211
13583140 156 18335709403106798795
13760787 19 18341611555570611519
14115302 16 17346596417111673447
14341114 176 18113344111069876613
14386348 63 16732988617509419379
17834072 33 18411134775469877023
17844677 252 17895197671245712853
18186145 218 18188477073390088623
200 152 18409726240269738627
20612939 158 18408042930928069861
20645476 183 18131068285696504007
20645477 70 18187364294788157466
21033648 29 17676471861992823101
21267235 1 18336831892677934198
221357 26 18113612361663162485
22289505 5 18187074023285752501
23402539 116 15339108027389591605
23557571 272 15338851840869311312
23558518 356 17319859760995823834
23559900 14 16877947143904420971
29717793 49 18201160970756011998
3411729 13 14708074222169192174
345986 75 18194107539492378186
474 4 18194679495549782512
5104073 3 18336543931730856155
542803 24 18202567276255907791
7495541 125 16950567683669420202
8272917 22 18410015394685294175
9981440 41 17264670895736843496

> <PUBCHEM_SHAPE_MULTIPOLES>
378.15
12.43
1.6
1.16
12.36
0.59
0.03
-0.24
0.35
-2.58
-0.23
0.55
0.07
-0.76

> <PUBCHEM_SHAPE_SELFOVERLAP>
789.243

> <PUBCHEM_SHAPE_VOLUME>
213.3

> <PUBCHEM_COORDINATE_TYPE>
2
5
10

$$$$
