26744691
  -OEChem-12032416183D

 47 49  0     1  0  0  0  0  0999 V2000
    7.4322   -0.7228   -1.9896 Cl  0  0  0  0  0  0  0  0  0  0  0  0
   -1.5787    0.2423   -0.9565 O   0  0  0  0  0  0  0  0  0  0  0  0
   -1.6506    3.0458    1.2873 O   0  0  0  0  0  0  0  0  0  0  0  0
   -0.3057    3.0016   -1.1122 O   0  0  0  0  0  0  0  0  0  0  0  0
   -4.7010    0.3536   -1.2625 O   0  0  0  0  0  0  0  0  0  0  0  0
   -5.4996   -0.6331    0.6811 N   0  0  0  0  0  0  0  0  0  0  0  0
    2.0316   -0.1747   -0.2780 N   0  0  0  0  0  0  0  0  0  0  0  0
   -6.7652   -1.0531    0.1514 C   0  0  0  0  0  0  0  0  0  0  0  0
   -2.2856    1.1415   -0.0842 C   0  0  2  0  0  0  0  0  0  0  0  0
   -6.9013   -2.3428   -0.6034 C   0  0  0  0  0  0  0  0  0  0  0  0
   -7.5188   -2.2010    0.7569 C   0  0  0  0  0  0  0  0  0  0  0  0
   -1.2208    1.8032    0.7739 C   0  0  1  0  0  0  0  0  0  0  0  0
   -0.0725    1.9237   -0.2065 C   0  0  1  0  0  0  0  0  0  0  0  0
   -0.1826    0.6181   -0.9863 C   0  0  1  0  0  0  0  0  0  0  0  0
   -3.3145    0.3689    0.7218 C   0  0  0  0  0  0  0  0  0  0  0  0
    0.6187   -0.5172   -0.3643 C   0  0  0  0  0  0  0  0  0  0  0  0
   -4.5596    0.0453   -0.0820 C   0  0  0  0  0  0  0  0  0  0  0  0
    2.7946   -1.2581    0.3269 C   0  0  0  0  0  0  0  0  0  0  0  0
    4.2578   -0.9205    0.4363 C   0  0  0  0  0  0  0  0  0  0  0  0
    5.0720   -0.9714   -0.6952 C   0  0  0  0  0  0  0  0  0  0  0  0
    4.7991   -0.5559    1.6693 C   0  0  0  0  0  0  0  0  0  0  0  0
    6.4274   -0.6578   -0.5939 C   0  0  0  0  0  0  0  0  0  0  0  0
    6.1545   -0.2426    1.7705 C   0  0  0  0  0  0  0  0  0  0  0  0
    6.9687   -0.2931    0.6390 C   0  0  0  0  0  0  0  0  0  0  0  0
   -7.3657   -0.2161   -0.1918 H   0  0  0  0  0  0  0  0  0  0  0  0
   -2.7824    1.8948   -0.7095 H   0  0  0  0  0  0  0  0  0  0  0  0
   -6.0315   -2.9817   -0.6967 H   0  0  0  0  0  0  0  0  0  0  0  0
   -7.5637   -2.3582   -1.4601 H   0  0  0  0  0  0  0  0  0  0  0  0
   -8.5974   -2.1224    0.8156 H   0  0  0  0  0  0  0  0  0  0  0  0
   -7.0632   -2.7454    1.5748 H   0  0  0  0  0  0  0  0  0  0  0  0
   -0.9379    1.1525    1.6102 H   0  0  0  0  0  0  0  0  0  0  0  0
    0.8860    2.1131    0.2833 H   0  0  0  0  0  0  0  0  0  0  0  0
    0.0993    0.7449   -2.0383 H   0  0  0  0  0  0  0  0  0  0  0  0
   -2.8912   -0.5764    1.0823 H   0  0  0  0  0  0  0  0  0  0  0  0
   -3.6342    0.9602    1.5884 H   0  0  0  0  0  0  0  0  0  0  0  0
   -5.3016   -0.8429    1.6559 H   0  0  0  0  0  0  0  0  0  0  0  0
    0.4752   -1.4223   -0.9686 H   0  0  0  0  0  0  0  0  0  0  0  0
    0.2193   -0.7523    0.6306 H   0  0  0  0  0  0  0  0  0  0  0  0
   -0.8871    3.4606    1.7237 H   0  0  0  0  0  0  0  0  0  0  0  0
    0.4367    3.0190   -1.7402 H   0  0  0  0  0  0  0  0  0  0  0  0
    2.3877    0.0204   -1.2136 H   0  0  0  0  0  0  0  0  0  0  0  0
    2.6932   -2.1797   -0.2613 H   0  0  0  0  0  0  0  0  0  0  0  0
    2.4001   -1.4847    1.3258 H   0  0  0  0  0  0  0  0  0  0  0  0
    4.6482   -1.2572   -1.6554 H   0  0  0  0  0  0  0  0  0  0  0  0
    4.1765   -0.5098    2.5588 H   0  0  0  0  0  0  0  0  0  0  0  0
    6.5759    0.0417    2.7304 H   0  0  0  0  0  0  0  0  0  0  0  0
    8.0231   -0.0462    0.7331 H   0  0  0  0  0  0  0  0  0  0  0  0
  1 22  1  0  0  0  0
  2  9  1  0  0  0  0
  2 14  1  0  0  0  0
  3 12  1  0  0  0  0
  3 39  1  0  0  0  0
  4 13  1  0  0  0  0
  4 40  1  0  0  0  0
  5 17  2  0  0  0  0
  6  8  1  0  0  0  0
  6 17  1  0  0  0  0
  6 36  1  0  0  0  0
  7 16  1  0  0  0  0
  7 18  1  0  0  0  0
  7 41  1  0  0  0  0
  8 10  1  0  0  0  0
  8 11  1  0  0  0  0
  8 25  1  0  0  0  0
  9 12  1  0  0  0  0
  9 15  1  0  0  0  0
  9 26  1  0  0  0  0
 10 11  1  0  0  0  0
 10 27  1  0  0  0  0
 10 28  1  0  0  0  0
 11 29  1  0  0  0  0
 11 30  1  0  0  0  0
 12 13  1  0  0  0  0
 12 31  1  0  0  0  0
 13 14  1  0  0  0  0
 13 32  1  0  0  0  0
 14 16  1  0  0  0  0
 14 33  1  0  0  0  0
 15 17  1  0  0  0  0
 15 34  1  0  0  0  0
 15 35  1  0  0  0  0
 16 37  1  0  0  0  0
 16 38  1  0  0  0  0
 18 19  1  0  0  0  0
 18 42  1  0  0  0  0
 18 43  1  0  0  0  0
 19 20  2  0  0  0  0
 19 21  1  0  0  0  0
 20 22  1  0  0  0  0
 20 44  1  0  0  0  0
 21 23  2  0  0  0  0
 21 45  1  0  0  0  0
 22 24  2  0  0  0  0
 23 24  1  0  0  0  0
 23 46  1  0  0  0  0
 24 47  1  0  0  0  0
M  END
> <PUBCHEM_COMPOUND_CID>
26744691

> <PUBCHEM_CONFORMER_RMSD>
1

> <PUBCHEM_CONFORMER_DIVERSEORDER>
1
134
140
137
191
73
101
32
196
121
118
23
208
42
75
110
50
164
6
171
143
127
104
64
78
98
36
193
81
12
82
162
138
131
169
152
90
49
199
79
200
186
46
43
136
144
18
181
17
130
209
26
116
87
4
175
185
203
96
170
207
63
83
125
124
13
128
160
194
86
105
159
151
100
61
139
62
89
33
115
68
67
184
114
165
133
41
205
35
173
122
204
190
180
112
91
37
179
192
195
9
77
142
189
47
27
145
126
56
198
155
156
60
20
93
177
38
148
167
44
168
166
109
51
123
187
57
39
52
31
120
58
59
69
88
15
147
70
178
161
55
183
206
188
5
119
201
157
129
174
197
95
107
29
210
154
182
11
108
163
94
153
85
53
40
14
150
97
24
34
84
10
45
102
111
158
65
211
21
8
176
202
66
92
72
74
149
76
113
22
132
16
146
172
141
99
48
135
71
117
19
28
3
106
103
80
30
7
25
54
2

> <PUBCHEM_MMFF94_PARTIAL_CHARGES>
37
1 -0.18
10 -0.2
11 -0.2
12 0.28
13 0.28
14 0.28
15 0.06
16 0.27
17 0.57
18 0.41
19 -0.14
2 -0.56
20 -0.15
21 -0.15
22 0.18
23 -0.15
24 -0.15
25 0.1
27 0.1
28 0.1
29 0.1
3 -0.68
30 0.1
36 0.37
39 0.4
4 -0.68
40 0.4
41 0.36
44 0.15
45 0.15
46 0.15
47 0.15
5 -0.57
6 -0.58
7 -0.9
8 0.05
9 0.28

> <PUBCHEM_EFFECTIVE_ROTOR_COUNT>
9.6

> <PUBCHEM_PHARMACOPHORE_FEATURES>
11
1 2 acceptor
1 3 acceptor
1 3 donor
1 4 acceptor
1 4 donor
1 5 acceptor
1 6 donor
1 7 cation
1 7 donor
5 2 9 12 13 14 rings
6 19 20 21 22 23 24 rings

> <PUBCHEM_HEAVY_ATOM_COUNT>
24

> <PUBCHEM_ATOM_DEF_STEREO_COUNT>
4

> <PUBCHEM_ATOM_UDEF_STEREO_COUNT>
0

> <PUBCHEM_BOND_DEF_STEREO_COUNT>
0

> <PUBCHEM_BOND_UDEF_STEREO_COUNT>
0

> <PUBCHEM_ISOTOPIC_ATOM_COUNT>
0

> <PUBCHEM_COMPONENT_COUNT>
1

> <PUBCHEM_CACTVS_TAUTO_COUNT>
2

> <PUBCHEM_CONFORMER_ID>
0198177300000001

> <PUBCHEM_MMFF94_ENERGY>
54.1155

> <PUBCHEM_FEATURE_SELFOVERLAP>
55.833

> <PUBCHEM_SHAPE_FINGERPRINT>
10 15 15051737508397294443
10366900 7 18113905918978943376
106641 1 17988639735235020818
11497681 19 18336831888441405230
11724838 91 18113054948713492854
11823591 26 9583524187874057873
12293681 160 12612746917940431461
12516196 113 18410855464692226027
12730499 353 17632295645474013182
12916748 109 18131066005643434154
13782708 43 17986960648484696222
14123256 34 18343303677905525039
14341114 176 17060335219652552696
14429380 56 16226054431402120878
15183329 4 12829480433176633739
15301273 46 17561086878163759101
15350500 55 11599462265291940459
16991971 28 18338244846154247775
17852330 162 15214729193186423907
18335252 98 18201721756663347622
20028762 73 18341614840857070183
20511986 3 14273461409631695888
20567600 70 18336546109875575027
20621476 66 10591753299365657506
20771845 171 17751643392687486189
21150785 3 17022905665746311166
21267235 1 18341899597098234255
21637258 2 18040709286449320659
22224240 67 16773794810037076615
2297311 6 18131356271890932292
23559900 14 12901845912683647686
2747138 104 18201720664934260490
2838139 119 11023825042338049835
3009799 131 13406796631591877782
328311 84 17132120122043514974
3383291 50 18338800117461342803
4015057 19 14996580489708338516
5219985 9 18187083962341202629
59682541 35 18342450487332095626
59682541 52 14273444873469445064
5969126 39 17022894640992329583
59755656 520 13901901202830807973

> <PUBCHEM_SHAPE_MULTIPOLES>
462.34
22.7
2.32
1.45
1.73
1.46
-0.01
-17.56
-0.32
3.77
-0.07
-2.29
0.03
0.35

> <PUBCHEM_SHAPE_SELFOVERLAP>
949.999

> <PUBCHEM_SHAPE_VOLUME>
266.7

> <PUBCHEM_COORDINATE_TYPE>
2
5
10

$$$$
