7051867
  -OEChem-12032416283D

 63 67  0     1  0  0  0  0  0999 V2000
   -1.8036    2.5020   -1.7707 O   0  0  0  0  0  0  0  0  0  0  0  0
   -3.5124   -1.3362    0.6227 O   0  0  0  0  0  0  0  0  0  0  0  0
    2.8831    1.3446   -0.4203 N   0  0  2  0  0  0  0  0  0  0  0  0
   -0.1037    2.4395   -0.1691 N   0  0  0  0  0  0  0  0  0  0  0  0
    3.8742   -3.0340    0.3231 N   0  0  0  0  0  0  0  0  0  0  0  0
   -3.4050    0.7734   -0.3562 N   0  0  0  0  0  0  0  0  0  0  0  0
   -6.2070   -1.4454    0.0413 N   0  0  0  0  0  0  0  0  0  0  0  0
    2.0980    3.7257   -0.4248 C   0  0  1  0  0  0  0  0  0  0  0  0
    1.7253    2.3383    1.5585 C   0  0  2  0  0  0  0  0  0  0  0  0
    2.0904    3.7469    1.0980 C   0  0  0  0  0  0  0  0  0  0  0  0
    3.1303    2.6976   -0.9340 C   0  0  0  0  0  0  0  0  0  0  0  0
    2.7857    1.3365    1.0471 C   0  0  0  0  0  0  0  0  0  0  0  0
    0.6768    3.4303   -0.9233 C   0  0  0  0  0  0  0  0  0  0  0  0
    0.3447    1.9503    1.0619 C   0  0  0  0  0  0  0  0  0  0  0  0
    3.9096    0.4133   -0.8814 C   0  0  0  0  0  0  0  0  0  0  0  0
   -0.4331    1.1292    1.7871 C   0  0  0  0  0  0  0  0  0  0  0  0
   -1.3606    2.0853   -0.6995 C   0  0  0  0  0  0  0  0  0  0  0  0
    3.6158   -1.0009   -0.4563 C   0  0  0  0  0  0  0  0  0  0  0  0
   -2.1872    1.1502    0.1280 C   0  0  0  0  0  0  0  0  0  0  0  0
   -1.7235    0.7217    1.3069 C   0  0  0  0  0  0  0  0  0  0  0  0
    2.3650   -1.6376   -0.5427 C   0  0  0  0  0  0  0  0  0  0  0  0
    4.5289   -1.8581    0.0721 C   0  0  0  0  0  0  0  0  0  0  0  0
    2.5511   -2.9281   -0.0426 C   0  0  0  0  0  0  0  0  0  0  0  0
    1.0834   -1.2630   -0.9928 C   0  0  0  0  0  0  0  0  0  0  0  0
    1.5155   -3.8665    0.0305 C   0  0  0  0  0  0  0  0  0  0  0  0
    4.4976   -4.2092    0.8930 C   0  0  0  0  0  0  0  0  0  0  0  0
   -4.0039   -0.4487   -0.0715 C   0  0  0  0  0  0  0  0  0  0  0  0
    0.0380   -2.1912   -0.9258 C   0  0  0  0  0  0  0  0  0  0  0  0
    0.2529   -3.4724   -0.4217 C   0  0  0  0  0  0  0  0  0  0  0  0
   -5.3515   -0.5759   -0.7533 C   0  0  0  0  0  0  0  0  0  0  0  0
   -7.5218   -1.5930   -0.5872 C   0  0  0  0  0  0  0  0  0  0  0  0
   -6.3529   -0.9248    1.4026 C   0  0  0  0  0  0  0  0  0  0  0  0
    2.3982    4.7106   -0.8037 H   0  0  0  0  0  0  0  0  0  0  0  0
    1.7397    2.3257    2.6565 H   0  0  0  0  0  0  0  0  0  0  0  0
    1.3701    4.4838    1.4748 H   0  0  0  0  0  0  0  0  0  0  0  0
    3.0764    4.0339    1.4833 H   0  0  0  0  0  0  0  0  0  0  0  0
    3.0999    2.6839   -2.0307 H   0  0  0  0  0  0  0  0  0  0  0  0
    4.1350    3.0362   -0.6463 H   0  0  0  0  0  0  0  0  0  0  0  0
    3.7568    1.5925    1.4935 H   0  0  0  0  0  0  0  0  0  0  0  0
    2.5150    0.3474    1.4333 H   0  0  0  0  0  0  0  0  0  0  0  0
    0.0921    4.3596   -0.8818 H   0  0  0  0  0  0  0  0  0  0  0  0
    0.6924    3.1317   -1.9791 H   0  0  0  0  0  0  0  0  0  0  0  0
    4.9027    0.7139   -0.5208 H   0  0  0  0  0  0  0  0  0  0  0  0
    3.9513    0.4210   -1.9787 H   0  0  0  0  0  0  0  0  0  0  0  0
   -0.1052    0.7329    2.7424 H   0  0  0  0  0  0  0  0  0  0  0  0
   -2.2853    0.0891    1.9838 H   0  0  0  0  0  0  0  0  0  0  0  0
    5.5817   -1.7416    0.2928 H   0  0  0  0  0  0  0  0  0  0  0  0
   -3.7769    1.3194   -1.1296 H   0  0  0  0  0  0  0  0  0  0  0  0
    0.8920   -0.2772   -1.4050 H   0  0  0  0  0  0  0  0  0  0  0  0
    1.6762   -4.8654    0.4219 H   0  0  0  0  0  0  0  0  0  0  0  0
    4.4010   -5.0311    0.1791 H   0  0  0  0  0  0  0  0  0  0  0  0
    5.5546   -4.0080    1.0849 H   0  0  0  0  0  0  0  0  0  0  0  0
    3.9902   -4.4479    1.8311 H   0  0  0  0  0  0  0  0  0  0  0  0
   -0.9519   -1.9086   -1.2745 H   0  0  0  0  0  0  0  0  0  0  0  0
   -0.5735   -4.1772   -0.3792 H   0  0  0  0  0  0  0  0  0  0  0  0
   -5.1712   -1.0091   -1.7443 H   0  0  0  0  0  0  0  0  0  0  0  0
   -5.8033    0.4149   -0.8895 H   0  0  0  0  0  0  0  0  0  0  0  0
   -7.4200   -2.0097   -1.5955 H   0  0  0  0  0  0  0  0  0  0  0  0
   -8.0552   -0.6382   -0.6606 H   0  0  0  0  0  0  0  0  0  0  0  0
   -8.1437   -2.2943   -0.0198 H   0  0  0  0  0  0  0  0  0  0  0  0
   -5.4285   -0.9545    1.9855 H   0  0  0  0  0  0  0  0  0  0  0  0
   -7.0625   -1.5434    1.9658 H   0  0  0  0  0  0  0  0  0  0  0  0
   -6.7341    0.1035    1.4099 H   0  0  0  0  0  0  0  0  0  0  0  0
  1 17  2  0  0  0  0
  2 27  2  0  0  0  0
  3 11  1  0  0  0  0
  3 12  1  0  0  0  0
  3 15  1  0  0  0  0
  4 13  1  0  0  0  0
  4 14  1  0  0  0  0
  4 17  1  0  0  0  0
  5 22  1  0  0  0  0
  5 23  1  0  0  0  0
  5 26  1  0  0  0  0
  6 19  1  0  0  0  0
  6 27  1  0  0  0  0
  6 48  1  0  0  0  0
  7 30  1  0  0  0  0
  7 31  1  0  0  0  0
  7 32  1  0  0  0  0
  8 10  1  0  0  0  0
  8 11  1  0  0  0  0
  8 13  1  0  0  0  0
  8 33  1  0  0  0  0
  9 10  1  0  0  0  0
  9 12  1  0  0  0  0
  9 14  1  0  0  0  0
  9 34  1  0  0  0  0
 10 35  1  0  0  0  0
 10 36  1  0  0  0  0
 11 37  1  0  0  0  0
 11 38  1  0  0  0  0
 12 39  1  0  0  0  0
 12 40  1  0  0  0  0
 13 41  1  0  0  0  0
 13 42  1  0  0  0  0
 14 16  2  0  0  0  0
 15 18  1  0  0  0  0
 15 43  1  0  0  0  0
 15 44  1  0  0  0  0
 16 20  1  0  0  0  0
 16 45  1  0  0  0  0
 17 19  1  0  0  0  0
 18 21  1  0  0  0  0
 18 22  2  0  0  0  0
 19 20  2  0  0  0  0
 20 46  1  0  0  0  0
 21 23  1  0  0  0  0
 21 24  2  0  0  0  0
 22 47  1  0  0  0  0
 23 25  2  0  0  0  0
 24 28  1  0  0  0  0
 24 49  1  0  0  0  0
 25 29  1  0  0  0  0
 25 50  1  0  0  0  0
 26 51  1  0  0  0  0
 26 52  1  0  0  0  0
 26 53  1  0  0  0  0
 27 30  1  0  0  0  0
 28 29  2  0  0  0  0
 28 54  1  0  0  0  0
 29 55  1  0  0  0  0
 30 56  1  0  0  0  0
 30 57  1  0  0  0  0
 31 58  1  0  0  0  0
 31 59  1  0  0  0  0
 31 60  1  0  0  0  0
 32 61  1  0  0  0  0
 32 62  1  0  0  0  0
 32 63  1  0  0  0  0
M  END
> <PUBCHEM_COMPOUND_CID>
7051867

> <PUBCHEM_CONFORMER_RMSD>
1

> <PUBCHEM_CONFORMER_DIVERSEORDER>
1
8
17
23
20
18
22
12
13
6
7
21
10
5
11
4
19
14
16
3
15
9
2

> <PUBCHEM_MMFF94_PARTIAL_CHARGES>
37
1 -0.57
11 0.27
12 0.27
13 0.3
14 -0.03
15 0.45
16 -0.15
17 0.62
18 -0.18
19 0.12
2 -0.57
20 -0.15
22 -0.3
23 -0.15
24 -0.15
25 -0.15
26 0.26
27 0.57
28 -0.15
29 -0.15
3 -0.81
30 0.33
31 0.27
32 0.27
4 -0.47
45 0.15
46 0.15
47 0.15
48 0.37
49 0.15
5 0.05
50 0.15
54 0.15
55 0.15
6 -0.54
7 -0.81
9 0.14

> <PUBCHEM_EFFECTIVE_ROTOR_COUNT>
7

> <PUBCHEM_PHARMACOPHORE_FEATURES>
11
1 1 acceptor
1 2 acceptor
1 3 cation
1 5 cation
1 6 donor
1 7 cation
5 5 18 21 22 23 rings
6 21 23 24 25 28 29 rings
6 3 8 9 10 11 12 rings
6 4 14 16 17 19 20 rings
6 4 8 9 10 13 14 rings

> <PUBCHEM_HEAVY_ATOM_COUNT>
32

> <PUBCHEM_ATOM_DEF_STEREO_COUNT>
2

> <PUBCHEM_ATOM_UDEF_STEREO_COUNT>
0

> <PUBCHEM_BOND_DEF_STEREO_COUNT>
0

> <PUBCHEM_BOND_UDEF_STEREO_COUNT>
0

> <PUBCHEM_ISOTOPIC_ATOM_COUNT>
0

> <PUBCHEM_COMPONENT_COUNT>
1

> <PUBCHEM_CACTVS_TAUTO_COUNT>
2

> <PUBCHEM_CONFORMER_ID>
006B9A5B00000001

> <PUBCHEM_MMFF94_ENERGY>
84.1757

> <PUBCHEM_FEATURE_SELFOVERLAP>
57.465

> <PUBCHEM_SHAPE_FINGERPRINT>
10675989 125 18056482978787973329
10816530 23 17547290464062777969
1100329 8 18269556203568720542
11014199 57 17908712734893562710
11513181 2 17771917300497776526
11828532 37 17168432687636193747
11963148 33 17980472688315563143
12156800 1 15738739603260255660
12166972 35 18115315474978278934
131258 38 18261098708473001450
13140716 1 17980753054820523576
13533116 47 18200598115761557913
1361 2 18265334100171429029
14004853 49 17326918659821793913
15927050 60 17983574401261972590
17138139 8 17342931869874480871
17492 54 18263100936363084284
17492 89 18050849918483440494
20764821 26 18122897891757091726
20775438 99 18191853742451308963
20775530 9 18340202977673968726
21033650 10 16443622377665029797
21421861 104 18059034821153863217
23559900 14 18337659833586959133
23569914 152 17759487051885365143
3380486 145 17976840695579487665
338550 245 18051410966044930863
345986 75 17775289348320436569
397830 11 10303811034653509893
4340502 62 17843962782606713481
46194498 28 17895193358845717037
463206 1 18194124010285782304
469060 322 18124887763206488970
484989 97 18194136323994670638
5309563 4 18339643339061055420
6086070 43 16988841688613903329
6669772 16 18268141153188076456

> <PUBCHEM_SHAPE_MULTIPOLES>
621.9
11.61
5.8
1.36
25.6
0.88
0.26
9.62
0.16
-7.27
0.06
0.18
-0.69
-0.29

> <PUBCHEM_SHAPE_SELFOVERLAP>
1357.386

> <PUBCHEM_SHAPE_VOLUME>
333.9

> <PUBCHEM_COORDINATE_TYPE>
2
5
10

$$$$
