40777102
  -OEChem-12032416183D

 63 67  0     1  0  0  0  0  0999 V2000
    4.1755   -2.1223   -2.2492 Br  0  0  0  0  0  0  0  0  0  0  0  0
   -4.0397    1.1953   -2.1447 O   0  0  0  0  0  0  0  0  0  0  0  0
   -5.9435   -0.5237   -1.3273 O   0  0  0  0  0  0  0  0  0  0  0  0
    0.0473    2.8764   -0.8618 N   0  0  2  0  0  0  0  0  0  0  0  0
   -2.3442   -0.0136   -1.1050 N   0  0  0  0  0  0  0  0  0  0  0  0
    2.0950   -0.1567    1.8638 N   0  0  0  0  0  0  0  0  0  0  0  0
    4.0230   -1.5222    1.3888 N   0  0  0  0  0  0  0  0  0  0  0  0
    0.4280    2.1620    1.6136 C   0  0  2  0  0  0  0  0  0  0  0  0
    1.7419    2.0159    0.7973 C   0  0  2  0  0  0  0  0  0  0  0  0
   -1.0068    1.9157   -0.4422 C   0  0  2  0  0  0  0  0  0  0  0  0
   -0.6829    1.3239    0.9464 C   0  0  0  0  0  0  0  0  0  0  0  0
    0.0026    3.6425    1.5113 C   0  0  0  0  0  0  0  0  0  0  0  0
    1.3889    2.2631   -0.6973 C   0  0  0  0  0  0  0  0  0  0  0  0
   -0.0338    4.0579    0.0301 C   0  0  0  0  0  0  0  0  0  0  0  0
   -1.2480    0.8227   -1.4857 C   0  0  0  0  0  0  0  0  0  0  0  0
    2.5735    0.7564    0.9934 C   0  0  0  0  0  0  0  0  0  0  0  0
    3.7527    0.6037    0.2930 C   0  0  0  0  0  0  0  0  0  0  0  0
    4.4425   -0.5672    0.5330 C   0  0  0  0  0  0  0  0  0  0  0  0
   -3.6657    0.2413   -1.4679 C   0  0  0  0  0  0  0  0  0  0  0  0
    2.8589   -1.2560    2.0112 C   0  0  0  0  0  0  0  0  0  0  0  0
    5.6908   -0.8473   -0.1354 C   0  0  0  0  0  0  0  0  0  0  0  0
   -4.6182   -0.8052   -0.9303 C   0  0  0  0  0  0  0  0  0  0  0  0
    2.3635   -2.2879    2.9670 C   0  0  0  0  0  0  0  0  0  0  0  0
    5.7416   -1.5180   -1.3573 C   0  0  0  0  0  0  0  0  0  0  0  0
    6.8702   -0.4248    0.4779 C   0  0  0  0  0  0  0  0  0  0  0  0
    6.9718   -1.7662   -1.9660 C   0  0  0  0  0  0  0  0  0  0  0  0
    8.1005   -0.6730   -0.1308 C   0  0  0  0  0  0  0  0  0  0  0  0
    8.1514   -1.3437   -1.3528 C   0  0  0  0  0  0  0  0  0  0  0  0
   -6.9508   -0.9298   -0.4842 C   0  0  0  0  0  0  0  0  0  0  0  0
   -6.7780   -2.0592    0.3159 C   0  0  0  0  0  0  0  0  0  0  0  0
   -8.1456   -0.2121   -0.4289 C   0  0  0  0  0  0  0  0  0  0  0  0
   -7.8000   -2.4711    1.1713 C   0  0  0  0  0  0  0  0  0  0  0  0
   -9.1675   -0.6238    0.4264 C   0  0  0  0  0  0  0  0  0  0  0  0
   -8.9947   -1.7534    1.2265 C   0  0  0  0  0  0  0  0  0  0  0  0
    0.5609    1.8742    2.6618 H   0  0  0  0  0  0  0  0  0  0  0  0
    2.4021    2.8339    1.1255 H   0  0  0  0  0  0  0  0  0  0  0  0
   -1.9508    2.4746   -0.3590 H   0  0  0  0  0  0  0  0  0  0  0  0
   -0.3674    0.2769    0.8776 H   0  0  0  0  0  0  0  0  0  0  0  0
   -1.5848    1.3454    1.5709 H   0  0  0  0  0  0  0  0  0  0  0  0
    0.7045    4.2814    2.0598 H   0  0  0  0  0  0  0  0  0  0  0  0
   -0.9855    3.7789    1.9674 H   0  0  0  0  0  0  0  0  0  0  0  0
    2.1397    2.9326   -1.1383 H   0  0  0  0  0  0  0  0  0  0  0  0
    1.4520    1.3427   -1.2893 H   0  0  0  0  0  0  0  0  0  0  0  0
   -0.9522    4.6212   -0.1764 H   0  0  0  0  0  0  0  0  0  0  0  0
    0.7901    4.7483   -0.1916 H   0  0  0  0  0  0  0  0  0  0  0  0
   -0.3789    0.1677   -1.6029 H   0  0  0  0  0  0  0  0  0  0  0  0
   -1.4636    1.2716   -2.4623 H   0  0  0  0  0  0  0  0  0  0  0  0
   -2.1417   -0.8324   -0.5384 H   0  0  0  0  0  0  0  0  0  0  0  0
    4.1169    1.3569   -0.3956 H   0  0  0  0  0  0  0  0  0  0  0  0
   -4.3183   -1.7832   -1.3235 H   0  0  0  0  0  0  0  0  0  0  0  0
   -4.5030   -0.7889    0.1617 H   0  0  0  0  0  0  0  0  0  0  0  0
    2.8311   -2.1402    3.9449 H   0  0  0  0  0  0  0  0  0  0  0  0
    1.2773   -2.2227    3.0847 H   0  0  0  0  0  0  0  0  0  0  0  0
    2.6061   -3.2933    2.6090 H   0  0  0  0  0  0  0  0  0  0  0  0
    6.8514    0.0991    1.4309 H   0  0  0  0  0  0  0  0  0  0  0  0
    7.0327   -2.2873   -2.9182 H   0  0  0  0  0  0  0  0  0  0  0  0
    9.0189   -0.3441    0.3467 H   0  0  0  0  0  0  0  0  0  0  0  0
    9.1094   -1.5369   -1.8266 H   0  0  0  0  0  0  0  0  0  0  0  0
   -5.8738   -2.6598    0.2825 H   0  0  0  0  0  0  0  0  0  0  0  0
   -8.2855    0.6685   -1.0497 H   0  0  0  0  0  0  0  0  0  0  0  0
   -7.6683   -3.3541    1.7900 H   0  0  0  0  0  0  0  0  0  0  0  0
  -10.0979   -0.0652    0.4693 H   0  0  0  0  0  0  0  0  0  0  0  0
   -9.7911   -2.0749    1.8914 H   0  0  0  0  0  0  0  0  0  0  0  0
  1 24  1  0  0  0  0
  2 19  2  0  0  0  0
  3 22  1  0  0  0  0
  3 29  1  0  0  0  0
  4 10  1  0  0  0  0
  4 13  1  0  0  0  0
  4 14  1  0  0  0  0
  5 15  1  0  0  0  0
  5 19  1  0  0  0  0
  5 48  1  0  0  0  0
  6 16  2  0  0  0  0
  6 20  1  0  0  0  0
  7 18  1  0  0  0  0
  7 20  2  0  0  0  0
  8  9  1  0  0  0  0
  8 11  1  0  0  0  0
  8 12  1  0  0  0  0
  8 35  1  0  0  0  0
  9 13  1  0  0  0  0
  9 16  1  0  0  0  0
  9 36  1  0  0  0  0
 10 11  1  0  0  0  0
 10 15  1  0  0  0  0
 10 37  1  0  0  0  0
 11 38  1  0  0  0  0
 11 39  1  0  0  0  0
 12 14  1  0  0  0  0
 12 40  1  0  0  0  0
 12 41  1  0  0  0  0
 13 42  1  0  0  0  0
 13 43  1  0  0  0  0
 14 44  1  0  0  0  0
 14 45  1  0  0  0  0
 15 46  1  0  0  0  0
 15 47  1  0  0  0  0
 16 17  1  0  0  0  0
 17 18  2  0  0  0  0
 17 49  1  0  0  0  0
 18 21  1  0  0  0  0
 19 22  1  0  0  0  0
 20 23  1  0  0  0  0
 21 24  1  0  0  0  0
 21 25  2  0  0  0  0
 22 50  1  0  0  0  0
 22 51  1  0  0  0  0
 23 52  1  0  0  0  0
 23 53  1  0  0  0  0
 23 54  1  0  0  0  0
 24 26  2  0  0  0  0
 25 27  1  0  0  0  0
 25 55  1  0  0  0  0
 26 28  1  0  0  0  0
 26 56  1  0  0  0  0
 27 28  2  0  0  0  0
 27 57  1  0  0  0  0
 28 58  1  0  0  0  0
 29 30  2  0  0  0  0
 29 31  1  0  0  0  0
 30 32  1  0  0  0  0
 30 59  1  0  0  0  0
 31 33  2  0  0  0  0
 31 60  1  0  0  0  0
 32 34  2  0  0  0  0
 32 61  1  0  0  0  0
 33 34  1  0  0  0  0
 33 62  1  0  0  0  0
 34 63  1  0  0  0  0
M  END
> <PUBCHEM_COMPOUND_CID>
40777102

> <PUBCHEM_CONFORMER_RMSD>
1.2

> <PUBCHEM_CONFORMER_DIVERSEORDER>
1
98
74
21
128
80
26
117
69
103
125
105
79
58
18
31
62
92
91
32
56
120
124
106
6
137
10
88
115
138
95
112
50
35
59
77
104
57
116
51
12
151
72
70
76
148
132
60
44
153
101
140
43
100
64
22
86
63
38
68
82
146
114
61
84
141
119
129
96
39
94
36
48
90
144
65
47
81
78
53
45
152
99
27
23
109
108
121
75
11
73
28
111
87
33
130
134
67
83
127
7
17
52
46
135
147
136
85
41
71
131
150
19
54
8
15
9
14
30
145
113
29
133
143
24
126
93
13
66
154
5
123
118
25
37
3
97
16
49
142
107
102
110
139
89
20
55
149
122
40
34
42
2
4

> <PUBCHEM_MMFF94_PARTIAL_CHARGES>
41
1 -0.11
10 0.27
13 0.27
14 0.27
15 0.3
16 0.17
17 -0.15
18 0.31
19 0.57
2 -0.57
20 0.48
22 0.34
23 0.14
24 0.11
25 -0.15
26 -0.15
27 -0.15
28 -0.15
29 0.08
3 -0.36
30 -0.15
31 -0.15
32 -0.15
33 -0.15
34 -0.15
4 -0.81
48 0.37
49 0.15
5 -0.73
55 0.15
56 0.15
57 0.15
58 0.15
59 0.15
6 -0.62
60 0.15
61 0.15
62 0.15
63 0.15
7 -0.62
9 0.14

> <PUBCHEM_EFFECTIVE_ROTOR_COUNT>
9.2

> <PUBCHEM_PHARMACOPHORE_FEATURES>
11
1 1 hydrophobe
1 2 acceptor
1 3 acceptor
1 4 cation
1 5 donor
1 6 acceptor
3 6 7 20 cation
6 21 24 25 26 27 28 rings
6 29 30 31 32 33 34 rings
6 6 7 16 17 18 20 rings
8 4 8 9 10 11 12 13 14 rings

> <PUBCHEM_HEAVY_ATOM_COUNT>
34

> <PUBCHEM_ATOM_DEF_STEREO_COUNT>
3

> <PUBCHEM_ATOM_UDEF_STEREO_COUNT>
0

> <PUBCHEM_BOND_DEF_STEREO_COUNT>
0

> <PUBCHEM_BOND_UDEF_STEREO_COUNT>
0

> <PUBCHEM_ISOTOPIC_ATOM_COUNT>
0

> <PUBCHEM_COMPONENT_COUNT>
1

> <PUBCHEM_CACTVS_TAUTO_COUNT>
2

> <PUBCHEM_CONFORMER_ID>
026E358E00000001

> <PUBCHEM_MMFF94_ENERGY>
102.6018

> <PUBCHEM_FEATURE_SELFOVERLAP>
55.828

> <PUBCHEM_SHAPE_FINGERPRINT>
10076449 9 18260550034578330649
10169797 241 18268971194351849344
11331351 85 17775282772815715953
12539747 363 16487251080548485552
12778500 126 15339119043696298046
13150687 139 12613031661118475728
13673619 4 18261106392353441581
13690498 29 18113888356657099741
14040221 126 18191309273953639986
14347424 109 16128649786385337386
14950920 106 13901034835086821020
15289351 153 7853587807289381644
15350500 185 7781514798017859127
15669420 48 16515685550063277422
19246450 95 12247671682270628796
19301679 30 18060146413912985685
195137 95 11527953339792009079
20105231 36 18261111889980535331
20554085 129 8862942766578354524
20737093 207 17897155820948682354
208703 8 18272371975495885001
21403212 168 10735879473920364004
21647283 7 13398337027999187799
21716022 299 18263374727338413300
22149856 69 17132114624743637514
23522609 53 14997111468832810261
24204213 149 17203611488777792552
25269216 80 18341905048171590020
393628 179 7925911460986705510
404807 78 17240772825454403075
439807 62 17676476221384478843
44344687 77 18412265064374581328
4461854 278 17561083622621482190
44880168 125 17775272868351684375
45266715 3 12468631695552433136
4756326 101 10665228197898437246
57366028 249 16845283996325906960
5776283 40 17240486952509717643
6058803 2 13987433226316548813
6201320 77 16772961285570379516
70251023 43 18343301444934371504
9962374 69 18129090281911412175

> <PUBCHEM_SHAPE_MULTIPOLES>
673.98
26.74
3.57
2.26
39.41
3.52
-0.57
-27.01
2.5
-0.07
-0.44
-1.34
-1.03
2.77

> <PUBCHEM_SHAPE_SELFOVERLAP>
1446.355

> <PUBCHEM_SHAPE_VOLUME>
381.1

> <PUBCHEM_COORDINATE_TYPE>
2
5
10

$$$$
