71693271
  -OEChem-12032416293D

 54 57  0     1  0  0  0  0  0999 V2000
    2.8839   -1.8251   -1.7139 O   0  0  0  0  0  0  0  0  0  0  0  0
    4.7813   -1.5040    2.5835 O   0  0  0  0  0  0  0  0  0  0  0  0
    5.2636    0.6326   -1.7826 O   0  0  0  0  0  0  0  0  0  0  0  0
   -3.3917    0.7816   -1.2913 O   0  0  0  0  0  0  0  0  0  0  0  0
   -7.0972   -0.6183    0.8065 O   0  0  0  0  0  0  0  0  0  0  0  0
    4.0249   -0.1158    0.0484 N   0  0  0  0  0  0  0  0  0  0  0  0
   -3.0403   -1.0136    0.1861 N   0  0  0  0  0  0  0  0  0  0  0  0
   -5.7398   -0.9060    0.7316 N   0  0  0  0  0  0  0  0  0  0  0  0
    3.3650   -1.2664    0.6751 C   0  0  1  0  0  0  0  0  0  0  0  0
    2.5349   -2.0836   -0.3497 C   0  0  1  0  0  0  0  0  0  0  0  0
    4.3905   -2.1548    1.3920 C   0  0  0  0  0  0  0  0  0  0  0  0
    1.0518   -1.7984   -0.2069 C   0  0  0  0  0  0  0  0  0  0  0  0
    4.2083    1.0868    0.8469 C   0  0  0  0  0  0  0  0  0  0  0  0
    4.5729   -0.2194   -1.2277 C   0  0  0  0  0  0  0  0  0  0  0  0
    4.2522   -1.5302   -1.9053 C   0  0  0  0  0  0  0  0  0  0  0  0
    3.0902    2.0689    0.6484 C   0  0  0  0  0  0  0  0  0  0  0  0
    0.4636   -0.7735   -0.9481 C   0  0  0  0  0  0  0  0  0  0  0  0
    0.2759   -2.5617    0.6656 C   0  0  0  0  0  0  0  0  0  0  0  0
   -0.9002   -0.5119   -0.8170 C   0  0  0  0  0  0  0  0  0  0  0  0
   -1.0878   -2.3003    0.7968 C   0  0  0  0  0  0  0  0  0  0  0  0
   -1.6760   -1.2754    0.0554 C   0  0  0  0  0  0  0  0  0  0  0  0
    3.1800    3.0357   -0.3531 C   0  0  0  0  0  0  0  0  0  0  0  0
    1.9611    2.0141    1.4654 C   0  0  0  0  0  0  0  0  0  0  0  0
    2.1407    3.9476   -0.5376 C   0  0  0  0  0  0  0  0  0  0  0  0
    0.9217    2.9259    1.2810 C   0  0  0  0  0  0  0  0  0  0  0  0
    1.0116    3.8927    0.2796 C   0  0  0  0  0  0  0  0  0  0  0  0
   -3.7974   -0.0345   -0.4707 C   0  0  0  0  0  0  0  0  0  0  0  0
   -5.2466   -0.0213   -0.1397 C   0  0  0  0  0  0  0  0  0  0  0  0
   -6.2359    0.8414   -0.6423 C   0  0  0  0  0  0  0  0  0  0  0  0
   -7.3804    0.4240   -0.0160 C   0  0  0  0  0  0  0  0  0  0  0  0
   -8.7806    0.8632   -0.0603 C   0  0  0  0  0  0  0  0  0  0  0  0
    2.6908   -0.8749    1.4479 H   0  0  0  0  0  0  0  0  0  0  0  0
    2.6807   -3.1605   -0.1962 H   0  0  0  0  0  0  0  0  0  0  0  0
    5.2801   -2.3416    0.7833 H   0  0  0  0  0  0  0  0  0  0  0  0
    3.9463   -3.1141    1.6762 H   0  0  0  0  0  0  0  0  0  0  0  0
    5.1576    1.5595    0.5650 H   0  0  0  0  0  0  0  0  0  0  0  0
    4.3071    0.8311    1.9067 H   0  0  0  0  0  0  0  0  0  0  0  0
    4.4260   -1.4227   -2.9802 H   0  0  0  0  0  0  0  0  0  0  0  0
    4.8910   -2.3356   -1.5307 H   0  0  0  0  0  0  0  0  0  0  0  0
    1.0492   -0.1542   -1.6223 H   0  0  0  0  0  0  0  0  0  0  0  0
    0.7234   -3.3610    1.2502 H   0  0  0  0  0  0  0  0  0  0  0  0
    5.4248   -2.0805    3.0293 H   0  0  0  0  0  0  0  0  0  0  0  0
   -1.2794    0.3004   -1.4206 H   0  0  0  0  0  0  0  0  0  0  0  0
   -1.6803   -2.9027    1.4808 H   0  0  0  0  0  0  0  0  0  0  0  0
    4.0539    3.0921   -0.9962 H   0  0  0  0  0  0  0  0  0  0  0  0
    1.8781    1.2692    2.2520 H   0  0  0  0  0  0  0  0  0  0  0  0
    2.2106    4.7004   -1.3172 H   0  0  0  0  0  0  0  0  0  0  0  0
    0.0423    2.8828    1.9170 H   0  0  0  0  0  0  0  0  0  0  0  0
   -3.5391   -1.6153    0.8384 H   0  0  0  0  0  0  0  0  0  0  0  0
    0.2022    4.6024    0.1359 H   0  0  0  0  0  0  0  0  0  0  0  0
   -6.1368    1.6479   -1.3539 H   0  0  0  0  0  0  0  0  0  0  0  0
   -9.4290    0.0486   -0.3972 H   0  0  0  0  0  0  0  0  0  0  0  0
   -9.1156    1.1818    0.9317 H   0  0  0  0  0  0  0  0  0  0  0  0
   -8.9092    1.7050   -0.7478 H   0  0  0  0  0  0  0  0  0  0  0  0
  1 10  1  0  0  0  0
  1 15  1  0  0  0  0
  2 11  1  0  0  0  0
  2 42  1  0  0  0  0
  3 14  2  0  0  0  0
  4 27  2  0  0  0  0
  5  8  1  0  0  0  0
  5 30  1  0  0  0  0
  6  9  1  0  0  0  0
  6 13  1  0  0  0  0
  6 14  1  0  0  0  0
  7 21  1  0  0  0  0
  7 27  1  0  0  0  0
  7 49  1  0  0  0  0
  8 28  2  0  0  0  0
  9 10  1  0  0  0  0
  9 11  1  0  0  0  0
  9 32  1  0  0  0  0
 10 12  1  0  0  0  0
 10 33  1  0  0  0  0
 11 34  1  0  0  0  0
 11 35  1  0  0  0  0
 12 17  2  0  0  0  0
 12 18  1  0  0  0  0
 13 16  1  0  0  0  0
 13 36  1  0  0  0  0
 13 37  1  0  0  0  0
 14 15  1  0  0  0  0
 15 38  1  0  0  0  0
 15 39  1  0  0  0  0
 16 22  2  0  0  0  0
 16 23  1  0  0  0  0
 17 19  1  0  0  0  0
 17 40  1  0  0  0  0
 18 20  2  0  0  0  0
 18 41  1  0  0  0  0
 19 21  2  0  0  0  0
 19 43  1  0  0  0  0
 20 21  1  0  0  0  0
 20 44  1  0  0  0  0
 22 24  1  0  0  0  0
 22 45  1  0  0  0  0
 23 25  2  0  0  0  0
 23 46  1  0  0  0  0
 24 26  2  0  0  0  0
 24 47  1  0  0  0  0
 25 26  1  0  0  0  0
 25 48  1  0  0  0  0
 26 50  1  0  0  0  0
 27 28  1  0  0  0  0
 28 29  1  0  0  0  0
 29 30  2  0  0  0  0
 29 51  1  0  0  0  0
 30 31  1  0  0  0  0
 31 52  1  0  0  0  0
 31 53  1  0  0  0  0
 31 54  1  0  0  0  0
M  END
> <PUBCHEM_COMPOUND_CID>
71693271

> <PUBCHEM_CONFORMER_RMSD>
1

> <PUBCHEM_CONFORMER_DIVERSEORDER>
1
32
12
36
2
44
9
54
38
33
20
30
34
48
53
29
49
10
24
13
3
11
42
46
31
50
45
25
27
18
7
41
35
52
37
19
26
51
8
21
43
23
16
47
22
39
40
5
15
28
14
6
4
17

> <PUBCHEM_MMFF94_PARTIAL_CHARGES>
43
1 -0.56
10 0.42
11 0.28
12 -0.14
13 0.44
14 0.57
15 0.34
16 -0.14
17 -0.15
18 -0.15
19 -0.15
2 -0.68
20 -0.15
21 0.12
22 -0.15
23 -0.15
24 -0.15
25 -0.15
26 -0.15
27 0.72
28 0.2
29 -0.15
3 -0.57
30 -0.04
31 0.18
4 -0.57
40 0.15
41 0.15
42 0.4
43 0.15
44 0.15
45 0.15
46 0.15
47 0.15
48 0.15
49 0.37
5 -0.02
50 0.15
51 0.15
6 -0.66
7 -0.55
8 -0.41
9 0.3

> <PUBCHEM_EFFECTIVE_ROTOR_COUNT>
8

> <PUBCHEM_PHARMACOPHORE_FEATURES>
11
1 1 acceptor
1 2 acceptor
1 2 donor
1 3 acceptor
1 4 acceptor
1 7 donor
1 8 acceptor
5 5 8 28 29 30 rings
6 1 6 9 10 14 15 rings
6 12 17 18 19 20 21 rings
6 16 22 23 24 25 26 rings

> <PUBCHEM_HEAVY_ATOM_COUNT>
31

> <PUBCHEM_ATOM_DEF_STEREO_COUNT>
2

> <PUBCHEM_ATOM_UDEF_STEREO_COUNT>
0

> <PUBCHEM_BOND_DEF_STEREO_COUNT>
0

> <PUBCHEM_BOND_UDEF_STEREO_COUNT>
0

> <PUBCHEM_ISOTOPIC_ATOM_COUNT>
0

> <PUBCHEM_COMPONENT_COUNT>
1

> <PUBCHEM_CACTVS_TAUTO_COUNT>
4

> <PUBCHEM_CONFORMER_ID>
0445F3D700000001

> <PUBCHEM_MMFF94_ENERGY>
79.8431

> <PUBCHEM_FEATURE_SELFOVERLAP>
55.825

> <PUBCHEM_SHAPE_FINGERPRINT>
10074138 170 15667000751420315843
10165383 225 17967820470427169510
10675989 125 18270964677442513576
11456790 92 18187926119491406913
11828042 279 18046888653978230015
12166972 35 17968098560537185902
12539745 222 17025697189306240218
12596602 18 14707206617511449037
13150687 139 10519126240668836170
13402501 40 18409164432719868693
13944108 23 18340772632072228912
14537116 161 18341900662572143941
14725015 67 18338226073047395280
151778 21 18120371214015642564
15183329 4 18272938215547281145
15210252 30 18334867134324492380
15238133 3 18261387893342321530
15420108 30 17485059107090000336
15968369 153 17773579552074228153
16728433 110 18408323291048923253
19301679 30 17976528422179054234
20554085 129 17167857557424117275
20587220 17 17561357396305371165
21344244 78 18046606946483247098
21475661 188 18337106890321463194
21860390 5 18272932756374446060
221357 26 18272656709888386933
23559900 14 18131355240808916735
24893992 56 18408041836275918523
249057 3 17917715694725497774
3411729 13 18337388369915251776
397830 11 18263655120863462507
4066623 53 18198920110767557094
4760202 170 18340471298411557733
5109719 28 18410864291430515307
513532 50 17489313031304285444
53794403 172 18191310583448374125
57359948 33 12319465385555255347
5776283 40 18117293655880520756
58902169 19 17917987266287813063
60111433 81 17129844252563853793
6086070 43 18409735092182090146
70251023 43 17843132394094065254
8509985 295 18334002887798178474

> <PUBCHEM_SHAPE_MULTIPOLES>
593.68
16.98
3.94
1.55
44.38
3.92
-0.08
0.84
0.28
-5.18
-0.62
-2.43
-0.43
0.39

> <PUBCHEM_SHAPE_SELFOVERLAP>
1281.833

> <PUBCHEM_SHAPE_VOLUME>
323.5

> <PUBCHEM_COORDINATE_TYPE>
2
5
10

$$$$
