75536529
  -OEChem-12032416323D

 51 52  0     1  0  0  0  0  0999 V2000
    1.0054    0.1323    0.0724 O   0  0  0  0  0  0  0  0  0  0  0  0
   -0.6298   -3.0592    0.2868 O   0  0  0  0  0  0  0  0  0  0  0  0
    3.2996    0.6716   -1.8442 O   0  0  0  0  0  0  0  0  0  0  0  0
   -2.5596   -0.5897    0.0549 N   0  0  0  0  0  0  0  0  0  0  0  0
    3.3807   -1.3290   -0.6645 N   0  0  0  0  0  0  0  0  0  0  0  0
   -5.1568    1.1754   -0.4749 N   0  0  0  0  0  0  0  0  0  0  0  0
   -5.8173   -0.3327    1.0154 N   0  0  0  0  0  0  0  0  0  0  0  0
   -1.1805   -0.6906    0.5038 C   0  0  1  0  0  0  0  0  0  0  0  0
   -0.3822   -1.7610   -0.2171 C   0  0  1  0  0  0  0  0  0  0  0  0
    1.0427   -1.3045    0.0657 C   0  0  1  0  0  0  0  0  0  0  0  0
   -0.3646    0.5535    0.1932 C   0  0  0  0  0  0  0  0  0  0  0  0
    2.0442   -1.7872   -0.9683 C   0  0  0  0  0  0  0  0  0  0  0  0
    5.4578    0.9252    0.6340 C   0  0  0  0  0  0  0  0  0  0  0  0
   -3.3593    0.1957    0.9874 C   0  0  0  0  0  0  0  0  0  0  0  0
    5.3266    0.1158   -0.6781 C   0  0  0  0  0  0  0  0  0  0  0  0
    3.8970   -0.1321   -1.1311 C   0  0  0  0  0  0  0  0  0  0  0  0
    6.9343    1.1395    1.0074 C   0  0  0  0  0  0  0  0  0  0  0  0
    4.8068    2.3044    0.4111 C   0  0  0  0  0  0  0  0  0  0  0  0
    4.7354    0.2299    1.7995 C   0  0  0  0  0  0  0  0  0  0  0  0
   -4.7878    0.3250    0.5300 C   0  0  0  0  0  0  0  0  0  0  0  0
   -6.5075    1.0520   -0.6408 C   0  0  0  0  0  0  0  0  0  0  0  0
   -4.2927    2.0498   -1.2323 C   0  0  0  0  0  0  0  0  0  0  0  0
   -6.8925    0.1160    0.2899 C   0  0  0  0  0  0  0  0  0  0  0  0
   -1.1472   -0.9092    1.5806 H   0  0  0  0  0  0  0  0  0  0  0  0
   -0.5941   -1.7532   -1.2936 H   0  0  0  0  0  0  0  0  0  0  0  0
    1.3671   -1.6274    1.0638 H   0  0  0  0  0  0  0  0  0  0  0  0
   -0.6474    1.0095   -0.7627 H   0  0  0  0  0  0  0  0  0  0  0  0
   -0.4413    1.3156    0.9746 H   0  0  0  0  0  0  0  0  0  0  0  0
    2.0734   -2.8810   -1.0003 H   0  0  0  0  0  0  0  0  0  0  0  0
    1.7767   -1.4167   -1.9645 H   0  0  0  0  0  0  0  0  0  0  0  0
   -2.9580   -1.5265   -0.0147 H   0  0  0  0  0  0  0  0  0  0  0  0
    3.9546   -1.9203   -0.0707 H   0  0  0  0  0  0  0  0  0  0  0  0
   -2.9380    1.1984    1.1245 H   0  0  0  0  0  0  0  0  0  0  0  0
   -3.3656   -0.2851    1.9741 H   0  0  0  0  0  0  0  0  0  0  0  0
   -0.4409   -3.0581    1.2404 H   0  0  0  0  0  0  0  0  0  0  0  0
    5.8371   -0.8499   -0.5679 H   0  0  0  0  0  0  0  0  0  0  0  0
    5.8422    0.6332   -1.4978 H   0  0  0  0  0  0  0  0  0  0  0  0
    7.4719    1.6588    0.2063 H   0  0  0  0  0  0  0  0  0  0  0  0
    7.0346    1.7375    1.9200 H   0  0  0  0  0  0  0  0  0  0  0  0
    7.4362    0.1807    1.1786 H   0  0  0  0  0  0  0  0  0  0  0  0
    4.9550    2.9508    1.2843 H   0  0  0  0  0  0  0  0  0  0  0  0
    5.2443    2.8161   -0.4537 H   0  0  0  0  0  0  0  0  0  0  0  0
    3.7259    2.2309    0.2515 H   0  0  0  0  0  0  0  0  0  0  0  0
    5.1129   -0.7885    1.9431 H   0  0  0  0  0  0  0  0  0  0  0  0
    4.8907    0.7750    2.7378 H   0  0  0  0  0  0  0  0  0  0  0  0
    3.6538    0.1730    1.6402 H   0  0  0  0  0  0  0  0  0  0  0  0
   -7.0610    1.6173   -1.3776 H   0  0  0  0  0  0  0  0  0  0  0  0
   -3.7801    2.7224   -0.5405 H   0  0  0  0  0  0  0  0  0  0  0  0
   -3.5763    1.4395   -1.7871 H   0  0  0  0  0  0  0  0  0  0  0  0
   -4.8937    2.6360   -1.9325 H   0  0  0  0  0  0  0  0  0  0  0  0
   -7.8890   -0.2578    0.4743 H   0  0  0  0  0  0  0  0  0  0  0  0
  1 10  1  0  0  0  0
  1 11  1  0  0  0  0
  2  9  1  0  0  0  0
  2 35  1  0  0  0  0
  3 16  2  0  0  0  0
  4  8  1  0  0  0  0
  4 14  1  0  0  0  0
  4 31  1  0  0  0  0
  5 12  1  0  0  0  0
  5 16  1  0  0  0  0
  5 32  1  0  0  0  0
  6 20  1  0  0  0  0
  6 21  1  0  0  0  0
  6 22  1  0  0  0  0
  7 20  2  0  0  0  0
  7 23  1  0  0  0  0
  8  9  1  0  0  0  0
  8 11  1  0  0  0  0
  8 24  1  0  0  0  0
  9 10  1  0  0  0  0
  9 25  1  0  0  0  0
 10 12  1  0  0  0  0
 10 26  1  0  0  0  0
 11 27  1  0  0  0  0
 11 28  1  0  0  0  0
 12 29  1  0  0  0  0
 12 30  1  0  0  0  0
 13 15  1  0  0  0  0
 13 17  1  0  0  0  0
 13 18  1  0  0  0  0
 13 19  1  0  0  0  0
 14 20  1  0  0  0  0
 14 33  1  0  0  0  0
 14 34  1  0  0  0  0
 15 16  1  0  0  0  0
 15 36  1  0  0  0  0
 15 37  1  0  0  0  0
 17 38  1  0  0  0  0
 17 39  1  0  0  0  0
 17 40  1  0  0  0  0
 18 41  1  0  0  0  0
 18 42  1  0  0  0  0
 18 43  1  0  0  0  0
 19 44  1  0  0  0  0
 19 45  1  0  0  0  0
 19 46  1  0  0  0  0
 21 23  2  0  0  0  0
 21 47  1  0  0  0  0
 22 48  1  0  0  0  0
 22 49  1  0  0  0  0
 22 50  1  0  0  0  0
 23 51  1  0  0  0  0
M  END
> <PUBCHEM_COMPOUND_CID>
75536529

> <PUBCHEM_CONFORMER_RMSD>
1.2

> <PUBCHEM_CONFORMER_DIVERSEORDER>
1
19
16
80
76
85
103
46
116
83
119
40
107
65
123
86
25
26
17
95
73
99
122
55
70
120
56
3
50
53
62
20
36
74
90
61
118
34
11
28
78
52
32
105
57
89
51
30
59
64
8
5
79
44
43
114
97
54
110
108
106
87
98
112
84
67
63
102
72
115
94
93
39
15
91
4
24
75
18
111
42
92
60
47
113
27
117
23
6
48
104
101
22
68
121
66
33
21
69
37
31
82
10
109
96
81
71
49
45
38
35
88
14
9
41
7
12
100
29
2
77
58
13

> <PUBCHEM_MMFF94_PARTIAL_CHARGES>
24
1 -0.56
10 0.28
11 0.28
12 0.3
14 0.45
15 0.06
16 0.57
2 -0.68
20 0.01
21 -0.3
22 0.26
23 0.08
3 -0.57
31 0.36
32 0.37
35 0.4
4 -0.9
47 0.15
5 -0.73
51 0.15
6 0.05
7 -0.57
8 0.27
9 0.28

> <PUBCHEM_EFFECTIVE_ROTOR_COUNT>
9

> <PUBCHEM_PHARMACOPHORE_FEATURES>
11
1 1 acceptor
1 2 acceptor
1 2 donor
1 3 acceptor
1 4 cation
1 4 donor
1 5 donor
3 6 7 20 cation
4 13 17 18 19 hydrophobe
5 1 8 9 10 11 rings
5 6 7 20 21 23 rings

> <PUBCHEM_HEAVY_ATOM_COUNT>
23

> <PUBCHEM_ATOM_DEF_STEREO_COUNT>
3

> <PUBCHEM_ATOM_UDEF_STEREO_COUNT>
0

> <PUBCHEM_BOND_DEF_STEREO_COUNT>
0

> <PUBCHEM_BOND_UDEF_STEREO_COUNT>
0

> <PUBCHEM_ISOTOPIC_ATOM_COUNT>
0

> <PUBCHEM_COMPONENT_COUNT>
1

> <PUBCHEM_CACTVS_TAUTO_COUNT>
2

> <PUBCHEM_CONFORMER_ID>
0480989100000001

> <PUBCHEM_MMFF94_ENERGY>
39.3567

> <PUBCHEM_FEATURE_SELFOVERLAP>
55.823

> <PUBCHEM_SHAPE_FINGERPRINT>
10 15 18186805815441705561
11128504 68 16702303433973957557
11646440 116 18342184374831527353
12236239 1 14201405997347268617
12596602 18 15213311858410789709
12778500 126 15864064343475630644
12969540 114 18060413603785979663
13533116 47 18200318715201589486
13673619 4 12107779701799397030
13685833 64 11314024678274637816
13914758 101 13262388956955132647
14123256 34 9079116678263229485
14211702 104 12541281986403281673
14251732 14 12031791370312727002
14251758 9 11314312745730969841
14251764 18 15864073182850232508
14251764 30 8502655908880449372
14461889 52 18261682557657820155
14528608 73 16988843873691427090
14681490 219 16630526228196728104
15183329 4 14836123256240609889
16079462 125 18408038503138274757
173720 79 17894347774173687442
17834072 33 15339117931204420128
20157964 124 17917997166166382638
20567600 254 18413107260432580946
20715895 44 18341895221017475328
21150785 3 17060615616608250805
21521721 280 18131639980377465115
21859007 373 17823971247836972262
220451 1 13758359955851242039
23016692 55 10735878374012876466
23035841 295 12247680461468189005
23424782 7 17632009862412898455
23559900 14 17489017262259234251
2767999 5 18410856563971862033
2838139 119 18411409631274269684
2916195 48 18409729560564197547
312425 54 14418422134348748456
345986 75 13551734263129669308
3472631 163 18342457097297351916
34797466 226 16845299332155791717
4072396 5 17603867793021098202
4325135 7 14979959168141730736
4340502 62 18409451379674857486
437815 12 8574709105008938679
439807 62 9727368930475943736
46194498 28 10592042454229365922
465052 167 8142083169737602536
5104073 3 18042128653034643353
53917941 68 18341606049253947463
54039377 194 12180387030677946456
543368 44 17917993867631421257
8863177 126 11095296648297082589

> <PUBCHEM_SHAPE_MULTIPOLES>
435.8
18.75
2.08
1.29
8.58
0.66
-0.09
-10.45
2.24
-0.72
-0.23
-0.92
-0.22
1.73

> <PUBCHEM_SHAPE_SELFOVERLAP>
885.214

> <PUBCHEM_SHAPE_VOLUME>
255.3

> <PUBCHEM_COORDINATE_TYPE>
2
5
10

$$$$
