38027239
  -OEChem-12032416253D

 76 77  0     1  0  0  0  0  0999 V2000
   -2.3018    2.7913    0.6073 O   0  0  0  0  0  0  0  0  0  0  0  0
    3.3751   -1.6038   -1.3642 O   0  0  0  0  0  0  0  0  0  0  0  0
   -0.3433   -1.8857   -0.5852 O   0  0  0  0  0  0  0  0  0  0  0  0
   -0.5521   -3.4394    1.0553 O   0  0  0  0  0  0  0  0  0  0  0  0
    3.5966    0.0514    0.2503 N   0  0  0  0  0  0  0  0  0  0  0  0
   -2.5750    0.7796    1.7288 N   0  0  0  0  0  0  0  0  0  0  0  0
    1.6078    1.8518   -1.1088 C   0  0  1  0  0  0  0  0  0  0  0  0
    2.9942    2.2718   -0.5596 C   0  0  1  0  0  0  0  0  0  0  0  0
    0.5283    2.8474   -0.6575 C   0  0  0  0  0  0  0  0  0  0  0  0
    0.4350    2.9499    0.8766 C   0  0  2  0  0  0  0  0  0  0  0  0
    1.6096    1.7461   -2.6370 C   0  0  0  0  0  0  0  0  0  0  0  0
    1.8012    3.0975    1.5152 C   0  0  0  0  0  0  0  0  0  0  0  0
    2.9343    2.8025    0.8535 C   0  0  0  0  0  0  0  0  0  0  0  0
    3.9910    1.1091   -0.6266 C   0  0  0  0  0  0  0  0  0  0  0  0
   -0.3193    1.7526    1.4653 C   0  0  0  0  0  0  0  0  0  0  0  0
    0.5102    0.7984   -3.1061 C   0  0  0  0  0  0  0  0  0  0  0  0
    1.4397    3.1253   -3.2658 C   0  0  0  0  0  0  0  0  0  0  0  0
    1.8381    3.6362    2.9184 C   0  0  0  0  0  0  0  0  0  0  0  0
   -1.8144    1.8377    1.2200 C   0  0  0  0  0  0  0  0  0  0  0  0
    3.3157   -1.2393   -0.1918 C   0  0  0  0  0  0  0  0  0  0  0  0
    2.5272   -3.6169    0.4549 C   0  0  0  0  0  0  0  0  0  0  0  0
    2.9224   -2.1936    0.9247 C   0  0  0  0  0  0  0  0  0  0  0  0
    1.3026   -3.6194   -0.4909 C   0  0  0  0  0  0  0  0  0  0  0  0
    3.7037   -4.2848   -0.2877 C   0  0  0  0  0  0  0  0  0  0  0  0
    2.2315   -4.4662    1.7094 C   0  0  0  0  0  0  0  0  0  0  0  0
   -4.0265    0.7139    1.5760 C   0  0  0  0  0  0  0  0  0  0  0  0
   -1.9765   -0.3371    2.4499 C   0  0  0  0  0  0  0  0  0  0  0  0
   -4.4280   -0.0431    0.3432 C   0  0  0  0  0  0  0  0  0  0  0  0
    0.0518   -2.9951    0.0876 C   0  0  0  0  0  0  0  0  0  0  0  0
   -4.5942    0.6310   -0.8667 C   0  0  0  0  0  0  0  0  0  0  0  0
   -4.6351   -1.4210    0.4078 C   0  0  0  0  0  0  0  0  0  0  0  0
   -4.9674   -0.0727   -2.0118 C   0  0  0  0  0  0  0  0  0  0  0  0
   -5.0080   -2.1247   -0.7374 C   0  0  0  0  0  0  0  0  0  0  0  0
   -5.1743   -1.4505   -1.9471 C   0  0  0  0  0  0  0  0  0  0  0  0
    1.3519    0.8669   -0.7017 H   0  0  0  0  0  0  0  0  0  0  0  0
    3.4009    3.0848   -1.1740 H   0  0  0  0  0  0  0  0  0  0  0  0
   -0.4462    2.5889   -1.0827 H   0  0  0  0  0  0  0  0  0  0  0  0
    0.7651    3.8605   -1.0075 H   0  0  0  0  0  0  0  0  0  0  0  0
   -0.1239    3.8702    1.0971 H   0  0  0  0  0  0  0  0  0  0  0  0
    2.5578    1.3280   -2.9901 H   0  0  0  0  0  0  0  0  0  0  0  0
    3.8897    2.9725    1.3460 H   0  0  0  0  0  0  0  0  0  0  0  0
    4.9809    1.4412   -0.2907 H   0  0  0  0  0  0  0  0  0  0  0  0
    4.1177    0.7373   -1.6470 H   0  0  0  0  0  0  0  0  0  0  0  0
   -0.1823    1.7326    2.5525 H   0  0  0  0  0  0  0  0  0  0  0  0
    0.0633    0.8147    1.0510 H   0  0  0  0  0  0  0  0  0  0  0  0
    0.6589   -0.2051   -2.6939 H   0  0  0  0  0  0  0  0  0  0  0  0
    0.5231    0.7083   -4.1980 H   0  0  0  0  0  0  0  0  0  0  0  0
   -0.4881    1.1402   -2.8163 H   0  0  0  0  0  0  0  0  0  0  0  0
    2.1504    3.8591   -2.8744 H   0  0  0  0  0  0  0  0  0  0  0  0
    0.4226    3.5197   -3.1696 H   0  0  0  0  0  0  0  0  0  0  0  0
    1.6304    3.0548   -4.3439 H   0  0  0  0  0  0  0  0  0  0  0  0
    1.3025    4.5895    2.9739 H   0  0  0  0  0  0  0  0  0  0  0  0
    2.8625    3.8171    3.2616 H   0  0  0  0  0  0  0  0  0  0  0  0
    1.3776    2.9361    3.6210 H   0  0  0  0  0  0  0  0  0  0  0  0
    3.5743    0.2352    1.2493 H   0  0  0  0  0  0  0  0  0  0  0  0
    3.7756   -2.2532    1.6134 H   0  0  0  0  0  0  0  0  0  0  0  0
    2.0963   -1.7335    1.4815 H   0  0  0  0  0  0  0  0  0  0  0  0
    1.0355   -4.6490   -0.7651 H   0  0  0  0  0  0  0  0  0  0  0  0
    1.5249   -3.1266   -1.4433 H   0  0  0  0  0  0  0  0  0  0  0  0
    3.8792   -3.8744   -1.2851 H   0  0  0  0  0  0  0  0  0  0  0  0
    4.6345   -4.1935    0.2836 H   0  0  0  0  0  0  0  0  0  0  0  0
    3.5123   -5.3558   -0.4275 H   0  0  0  0  0  0  0  0  0  0  0  0
    1.5023   -3.9858    2.3691 H   0  0  0  0  0  0  0  0  0  0  0  0
    3.1421   -4.6174    2.3014 H   0  0  0  0  0  0  0  0  0  0  0  0
    1.8462   -5.4559    1.4400 H   0  0  0  0  0  0  0  0  0  0  0  0
   -4.4207    1.7361    1.5172 H   0  0  0  0  0  0  0  0  0  0  0  0
   -4.4703    0.2698    2.4754 H   0  0  0  0  0  0  0  0  0  0  0  0
   -2.4377   -0.3936    3.4412 H   0  0  0  0  0  0  0  0  0  0  0  0
   -0.8993   -0.2737    2.5915 H   0  0  0  0  0  0  0  0  0  0  0  0
   -2.1866   -1.2634    1.9103 H   0  0  0  0  0  0  0  0  0  0  0  0
   -4.4382    1.7043   -0.9323 H   0  0  0  0  0  0  0  0  0  0  0  0
   -4.5146   -1.9587    1.3444 H   0  0  0  0  0  0  0  0  0  0  0  0
   -1.1597   -1.4948   -0.2080 H   0  0  0  0  0  0  0  0  0  0  0  0
   -5.0969    0.4522   -2.9538 H   0  0  0  0  0  0  0  0  0  0  0  0
   -5.1699   -3.1975   -0.6869 H   0  0  0  0  0  0  0  0  0  0  0  0
   -5.4649   -1.9985   -2.8386 H   0  0  0  0  0  0  0  0  0  0  0  0
  1 19  2  0  0  0  0
  2 20  2  0  0  0  0
  3 29  1  0  0  0  0
  3 73  1  0  0  0  0
  4 29  2  0  0  0  0
  5 14  1  0  0  0  0
  5 20  1  0  0  0  0
  5 55  1  0  0  0  0
  6 19  1  0  0  0  0
  6 26  1  0  0  0  0
  6 27  1  0  0  0  0
  7  8  1  0  0  0  0
  7  9  1  0  0  0  0
  7 11  1  0  0  0  0
  7 35  1  0  0  0  0
  8 13  1  0  0  0  0
  8 14  1  0  0  0  0
  8 36  1  0  0  0  0
  9 10  1  0  0  0  0
  9 37  1  0  0  0  0
  9 38  1  0  0  0  0
 10 12  1  0  0  0  0
 10 15  1  0  0  0  0
 10 39  1  0  0  0  0
 11 16  1  0  0  0  0
 11 17  1  0  0  0  0
 11 40  1  0  0  0  0
 12 13  2  0  0  0  0
 12 18  1  0  0  0  0
 13 41  1  0  0  0  0
 14 42  1  0  0  0  0
 14 43  1  0  0  0  0
 15 19  1  0  0  0  0
 15 44  1  0  0  0  0
 15 45  1  0  0  0  0
 16 46  1  0  0  0  0
 16 47  1  0  0  0  0
 16 48  1  0  0  0  0
 17 49  1  0  0  0  0
 17 50  1  0  0  0  0
 17 51  1  0  0  0  0
 18 52  1  0  0  0  0
 18 53  1  0  0  0  0
 18 54  1  0  0  0  0
 20 22  1  0  0  0  0
 21 22  1  0  0  0  0
 21 23  1  0  0  0  0
 21 24  1  0  0  0  0
 21 25  1  0  0  0  0
 22 56  1  0  0  0  0
 22 57  1  0  0  0  0
 23 29  1  0  0  0  0
 23 58  1  0  0  0  0
 23 59  1  0  0  0  0
 24 60  1  0  0  0  0
 24 61  1  0  0  0  0
 24 62  1  0  0  0  0
 25 63  1  0  0  0  0
 25 64  1  0  0  0  0
 25 65  1  0  0  0  0
 26 28  1  0  0  0  0
 26 66  1  0  0  0  0
 26 67  1  0  0  0  0
 27 68  1  0  0  0  0
 27 69  1  0  0  0  0
 27 70  1  0  0  0  0
 28 30  2  0  0  0  0
 28 31  1  0  0  0  0
 30 32  1  0  0  0  0
 30 71  1  0  0  0  0
 31 33  2  0  0  0  0
 31 72  1  0  0  0  0
 32 34  2  0  0  0  0
 32 74  1  0  0  0  0
 33 34  1  0  0  0  0
 33 75  1  0  0  0  0
 34 76  1  0  0  0  0
M  END
> <PUBCHEM_COMPOUND_CID>
38027239

> <PUBCHEM_CONFORMER_RMSD>
1.2

> <PUBCHEM_CONFORMER_DIVERSEORDER>
3
182
47
70
88
190
34
154
101
142
95
102
131
181
53
156
130
171
189
73
124
184
128
166
175
10
111
60
59
44
168
105
161
36
135
143
193
170
129
119
180
186
6
122
96
194
138
133
52
61
78
183
68
176
147
85
192
159
58
123
83
185
160
84
152
115
100
62
140
11
191
167
178
42
16
30
31
137
146
80
106
126
177
145
97
92
120
144
66
63
89
187
112
139
67
188
108
134
132
18
23
157
74
69
165
57
77
28
158
98
56
104
155
109
72
118
127
49
107
149
162
26
163
174
121
125
41
39
150
5
90
94
91
117
38
93
103
116
1
82
99
87
29
33
40
54
64
164
22
14
43
71
151
173
141
25
17
113
35
4
20
179
81
21
86
50
76
110
9
46
7
15
51
172
48
37
27
148
169
2
19
153
32
136
55
75
12
65
24
114
45
79
13
8

> <PUBCHEM_MMFF94_PARTIAL_CHARGES>
34
1 -0.57
10 0.14
12 -0.28
13 -0.29
14 0.3
15 0.06
18 0.14
19 0.57
2 -0.57
20 0.57
22 0.06
23 0.06
26 0.44
27 0.3
28 -0.14
29 0.66
3 -0.65
30 -0.15
31 -0.15
32 -0.15
33 -0.15
34 -0.15
4 -0.57
41 0.15
5 -0.73
55 0.37
6 -0.66
71 0.15
72 0.15
73 0.5
74 0.15
75 0.15
76 0.15
8 0.14

> <PUBCHEM_EFFECTIVE_ROTOR_COUNT>
13.8

> <PUBCHEM_PHARMACOPHORE_FEATURES>
10
1 1 acceptor
1 2 acceptor
1 3 acceptor
1 4 acceptor
1 5 donor
3 11 16 17 hydrophobe
3 21 24 25 hydrophobe
3 3 4 29 anion
6 28 30 31 32 33 34 rings
6 7 8 9 10 12 13 rings

> <PUBCHEM_HEAVY_ATOM_COUNT>
34

> <PUBCHEM_ATOM_DEF_STEREO_COUNT>
3

> <PUBCHEM_ATOM_UDEF_STEREO_COUNT>
0

> <PUBCHEM_BOND_DEF_STEREO_COUNT>
0

> <PUBCHEM_BOND_UDEF_STEREO_COUNT>
0

> <PUBCHEM_ISOTOPIC_ATOM_COUNT>
0

> <PUBCHEM_COMPONENT_COUNT>
1

> <PUBCHEM_CACTVS_TAUTO_COUNT>
2

> <PUBCHEM_CONFORMER_ID>
02443FE700000003

> <PUBCHEM_MMFF94_ENERGY>
79.7802

> <PUBCHEM_FEATURE_SELFOVERLAP>
50.805

> <PUBCHEM_SHAPE_FINGERPRINT>
10816530 23 17464816062234497613
11513181 2 18056774130346918886
12156800 1 13682314608774165176
14117953 113 17551233965631167789
14674994 50 17470446227382814892
17138139 8 17916021458954528005
20764821 26 17908143527256946747
20775530 9 17974862670235052762
25265897 201 16226342502989265379
35225 105 17253460274731262266
46194498 28 16807316793190058701
463206 1 18270126682341089475
5081480 168 17459192889571752005
66674814 147 18333449845944061826
6669772 16 17841135964197224545

> <PUBCHEM_SHAPE_MULTIPOLES>
666.26
9.37
6.33
2.85
13.42
4.98
-1.1
3.57
-2.27
-7.38
1.77
0.06
-2.48
-1.05

> <PUBCHEM_SHAPE_SELFOVERLAP>
1359.517

> <PUBCHEM_SHAPE_VOLUME>
384.4

> <PUBCHEM_COORDINATE_TYPE>
2
5
10

$$$$
