44716830
  -OEChem-12032416133D

 65 68  0     1  0  0  0  0  0999 V2000
    3.9524    2.7616   -0.0587 S   0  0  0  0  0  0  0  0  0  0  0  0
   -0.2119    0.5125    1.8322 O   0  0  0  0  0  0  0  0  0  0  0  0
   -3.7587    3.4033    0.6096 O   0  0  0  0  0  0  0  0  0  0  0  0
    4.0050    3.2449    1.3079 O   0  0  0  0  0  0  0  0  0  0  0  0
    4.9568    3.1776   -1.0188 O   0  0  0  0  0  0  0  0  0  0  0  0
   -3.4678    1.5129   -2.0937 O   0  0  0  0  0  0  0  0  0  0  0  0
   -3.6672   -1.4638    1.9583 O   0  0  0  0  0  0  0  0  0  0  0  0
   -1.6931    2.3747    0.1939 N   0  0  0  0  0  0  0  0  0  0  0  0
    2.4145    3.0689   -0.7089 N   0  0  0  0  0  0  0  0  0  0  0  0
   -1.3957   -0.9752    0.4887 N   0  0  0  0  0  0  0  0  0  0  0  0
    4.0502    0.2352   -1.1545 N   0  0  0  0  0  0  0  0  0  0  0  0
    3.9898   -1.0791    0.6346 N   0  0  0  0  0  0  0  0  0  0  0  0
   -2.3654   -2.4426    3.5782 N   0  0  0  0  0  0  0  0  0  0  0  0
    1.2036    2.5891    0.0008 C   0  0  2  0  0  0  0  0  0  0  0  0
    0.4309    1.6278   -0.9041 C   0  0  0  0  0  0  0  0  0  0  0  0
   -0.9302    1.2280   -0.3308 C   0  0  1  0  0  0  0  0  0  0  0  0
    0.3357    3.7849    0.3806 C   0  0  0  0  0  0  0  0  0  0  0  0
   -0.9586    3.3235    1.0380 C   0  0  0  0  0  0  0  0  0  0  0  0
   -0.8023    0.2386    0.7906 C   0  0  0  0  0  0  0  0  0  0  0  0
   -3.0809    2.5305    0.0693 C   0  0  0  0  0  0  0  0  0  0  0  0
   -1.3921   -2.1033    1.3919 C   0  0  2  0  0  0  0  0  0  0  0  0
   -3.8109    1.5833   -0.7806 C   0  0  0  0  0  0  0  0  0  0  0  0
    3.9826    0.9947   -0.0132 C   0  0  0  0  0  0  0  0  0  0  0  0
   -1.4640   -3.4418    0.6480 C   0  0  0  0  0  0  0  0  0  0  0  0
   -2.5930   -1.9436    2.3128 C   0  0  0  0  0  0  0  0  0  0  0  0
    3.9440    0.2014    1.1094 C   0  0  0  0  0  0  0  0  0  0  0  0
   -4.8288    0.7021   -0.4991 C   0  0  0  0  0  0  0  0  0  0  0  0
   -0.3103   -3.6433   -0.3042 C   0  0  0  0  0  0  0  0  0  0  0  0
    4.0531   -1.0086   -0.7292 C   0  0  0  0  0  0  0  0  0  0  0  0
   -5.1303    0.0478   -1.7173 C   0  0  0  0  0  0  0  0  0  0  0  0
   -4.2753    0.5762   -2.6566 C   0  0  0  0  0  0  0  0  0  0  0  0
   -0.4142   -3.2117   -1.6264 C   0  0  0  0  0  0  0  0  0  0  0  0
    0.8594   -4.2611    0.1380 C   0  0  0  0  0  0  0  0  0  0  0  0
    3.9742   -2.2847    1.4268 C   0  0  0  0  0  0  0  0  0  0  0  0
    0.6517   -3.3979   -2.5067 C   0  0  0  0  0  0  0  0  0  0  0  0
    1.9253   -4.4472   -0.7421 C   0  0  0  0  0  0  0  0  0  0  0  0
    1.8215   -4.0156   -2.0646 C   0  0  0  0  0  0  0  0  0  0  0  0
    1.5019    2.0775    0.9213 H   0  0  0  0  0  0  0  0  0  0  0  0
    0.2637    2.1121   -1.8764 H   0  0  0  0  0  0  0  0  0  0  0  0
    1.0350    0.7347   -1.1059 H   0  0  0  0  0  0  0  0  0  0  0  0
   -1.4740    0.7594   -1.1514 H   0  0  0  0  0  0  0  0  0  0  0  0
    0.8813    4.4499    1.0607 H   0  0  0  0  0  0  0  0  0  0  0  0
    0.1011    4.3751   -0.5152 H   0  0  0  0  0  0  0  0  0  0  0  0
   -1.5821    4.2009    1.2424 H   0  0  0  0  0  0  0  0  0  0  0  0
   -0.7642    2.8548    2.0074 H   0  0  0  0  0  0  0  0  0  0  0  0
    2.3211    3.1832   -1.7259 H   0  0  0  0  0  0  0  0  0  0  0  0
   -1.9407   -1.0636   -0.3637 H   0  0  0  0  0  0  0  0  0  0  0  0
   -0.4719   -2.0539    1.9880 H   0  0  0  0  0  0  0  0  0  0  0  0
   -1.4922   -4.2708    1.3676 H   0  0  0  0  0  0  0  0  0  0  0  0
   -2.4074   -3.5164    0.0893 H   0  0  0  0  0  0  0  0  0  0  0  0
    3.8876    0.4263    2.1655 H   0  0  0  0  0  0  0  0  0  0  0  0
   -5.2972    0.5482    0.4625 H   0  0  0  0  0  0  0  0  0  0  0  0
    4.1024   -1.8874   -1.3571 H   0  0  0  0  0  0  0  0  0  0  0  0
   -5.8769   -0.7139   -1.8892 H   0  0  0  0  0  0  0  0  0  0  0  0
   -4.1232    0.4012   -3.7115 H   0  0  0  0  0  0  0  0  0  0  0  0
   -1.3208   -2.7331   -1.9868 H   0  0  0  0  0  0  0  0  0  0  0  0
    0.9530   -4.5992    1.1665 H   0  0  0  0  0  0  0  0  0  0  0  0
   -3.0898   -2.4115    4.2879 H   0  0  0  0  0  0  0  0  0  0  0  0
   -1.4796   -2.8568    3.8502 H   0  0  0  0  0  0  0  0  0  0  0  0
    4.6112   -2.1362    2.3026 H   0  0  0  0  0  0  0  0  0  0  0  0
    4.3593   -3.1152    0.8306 H   0  0  0  0  0  0  0  0  0  0  0  0
    2.9438   -2.4763    1.7344 H   0  0  0  0  0  0  0  0  0  0  0  0
    0.5708   -3.0620   -3.5364 H   0  0  0  0  0  0  0  0  0  0  0  0
    2.8360   -4.9287   -0.3984 H   0  0  0  0  0  0  0  0  0  0  0  0
    2.6519   -4.1600   -2.7495 H   0  0  0  0  0  0  0  0  0  0  0  0
  1  4  2  0  0  0  0
  1  5  2  0  0  0  0
  1  9  1  0  0  0  0
  1 23  1  0  0  0  0
  2 19  2  0  0  0  0
  3 20  2  0  0  0  0
  6 22  1  0  0  0  0
  6 31  1  0  0  0  0
  7 25  2  0  0  0  0
  8 16  1  0  0  0  0
  8 18  1  0  0  0  0
  8 20  1  0  0  0  0
  9 14  1  0  0  0  0
  9 46  1  0  0  0  0
 10 19  1  0  0  0  0
 10 21  1  0  0  0  0
 10 47  1  0  0  0  0
 11 23  1  0  0  0  0
 11 29  2  0  0  0  0
 12 26  1  0  0  0  0
 12 29  1  0  0  0  0
 12 34  1  0  0  0  0
 13 25  1  0  0  0  0
 13 58  1  0  0  0  0
 13 59  1  0  0  0  0
 14 15  1  0  0  0  0
 14 17  1  0  0  0  0
 14 38  1  0  0  0  0
 15 16  1  0  0  0  0
 15 39  1  0  0  0  0
 15 40  1  0  0  0  0
 16 19  1  0  0  0  0
 16 41  1  0  0  0  0
 17 18  1  0  0  0  0
 17 42  1  0  0  0  0
 17 43  1  0  0  0  0
 18 44  1  0  0  0  0
 18 45  1  0  0  0  0
 20 22  1  0  0  0  0
 21 24  1  0  0  0  0
 21 25  1  0  0  0  0
 21 48  1  0  0  0  0
 22 27  2  0  0  0  0
 23 26  2  0  0  0  0
 24 28  1  0  0  0  0
 24 49  1  0  0  0  0
 24 50  1  0  0  0  0
 26 51  1  0  0  0  0
 27 30  1  0  0  0  0
 27 52  1  0  0  0  0
 28 32  2  0  0  0  0
 28 33  1  0  0  0  0
 29 53  1  0  0  0  0
 30 31  2  0  0  0  0
 30 54  1  0  0  0  0
 31 55  1  0  0  0  0
 32 35  1  0  0  0  0
 32 56  1  0  0  0  0
 33 36  2  0  0  0  0
 33 57  1  0  0  0  0
 34 60  1  0  0  0  0
 34 61  1  0  0  0  0
 34 62  1  0  0  0  0
 35 37  2  0  0  0  0
 35 63  1  0  0  0  0
 36 37  1  0  0  0  0
 36 64  1  0  0  0  0
 37 65  1  0  0  0  0
M  END
> <PUBCHEM_COMPOUND_CID>
44716830

> <PUBCHEM_CONFORMER_RMSD>
1.2

> <PUBCHEM_CONFORMER_DIVERSEORDER>
1
60
54
17
3
59
14
18
49
63
29
42
8
16
40
65
38
56
25
45
64
24
57
70
13
33
31
19
68
34
10
43
9
41
5
62
15
50
37
2
21
11
27
66
46
6
47
36
52
20
61
39
12
35
44
48
51
69
53
26
55
30
28
67
23
7
58
4
32
22

> <PUBCHEM_MMFF94_PARTIAL_CHARGES>
49
1 1.5
10 -0.73
11 -0.57
12 0.05
13 -0.8
14 0.36
16 0.36
18 0.3
19 0.57
2 -0.57
20 0.71
21 0.36
22 0.05
23 0.16
24 0.14
25 0.57
26 -0.3
27 -0.15
28 -0.14
29 0.04
3 -0.57
30 -0.15
31 -0.01
32 -0.15
33 -0.15
34 0.26
35 -0.15
36 -0.15
37 -0.15
4 -0.65
46 0.42
47 0.37
5 -0.65
51 0.15
52 0.15
53 0.15
54 0.15
55 0.15
56 0.15
57 0.15
58 0.37
59 0.37
6 -0.28
63 0.15
64 0.15
65 0.15
7 -0.57
8 -0.66
9 -0.91

> <PUBCHEM_EFFECTIVE_ROTOR_COUNT>
12.2

> <PUBCHEM_PHARMACOPHORE_FEATURES>
14
1 10 donor
1 13 donor
1 2 acceptor
1 3 acceptor
1 4 acceptor
1 5 acceptor
1 6 acceptor
1 7 acceptor
1 9 donor
3 11 12 29 cation
5 11 12 23 26 29 rings
5 6 22 27 30 31 rings
6 28 32 33 35 36 37 rings
6 8 14 15 16 17 18 rings

> <PUBCHEM_HEAVY_ATOM_COUNT>
37

> <PUBCHEM_ATOM_DEF_STEREO_COUNT>
3

> <PUBCHEM_ATOM_UDEF_STEREO_COUNT>
0

> <PUBCHEM_BOND_DEF_STEREO_COUNT>
0

> <PUBCHEM_BOND_UDEF_STEREO_COUNT>
0

> <PUBCHEM_ISOTOPIC_ATOM_COUNT>
0

> <PUBCHEM_COMPONENT_COUNT>
1

> <PUBCHEM_CACTVS_TAUTO_COUNT>
4

> <PUBCHEM_CONFORMER_ID>
02AA531E00000001

> <PUBCHEM_MMFF94_ENERGY>
76.9565

> <PUBCHEM_FEATURE_SELFOVERLAP>
71.068

> <PUBCHEM_SHAPE_FINGERPRINT>
12422481 6 17970376847799256225
1361 2 18341601599456124076
13642711 20 17681527278670354023
15484559 13 17899943150641452021
19930381 70 18050846620184972548
20764821 26 18341044215638114614
238 59 18127974113862989214
3380486 145 17401487547228952065
354706 35 18198329840041778012
463206 1 17764877892127789278
46939830 39 15740970657854978695

> <PUBCHEM_SHAPE_MULTIPOLES>
700.19
9.17
6.91
2.38
0.16
2.86
0.55
-5.15
-2.05
-3.95
-0.65
1.98
2.15
1.51

> <PUBCHEM_SHAPE_SELFOVERLAP>
1481.803

> <PUBCHEM_SHAPE_VOLUME>
392.7

> <PUBCHEM_COORDINATE_TYPE>
2
5
10

$$$$
