56775103
  -OEChem-12032416213D

 43 45  0     1  0  0  0  0  0999 V2000
    3.6189    1.6485    0.2904 O   0  0  0  0  0  0  0  0  0  0  0  0
    6.6743   -0.0800   -0.0153 O   0  0  0  0  0  0  0  0  0  0  0  0
   -5.9785   -1.6512    0.6699 O   0  0  0  0  0  0  0  0  0  0  0  0
    1.0070   -0.2611   -0.3316 N   0  0  1  0  0  0  0  0  0  0  0  0
    4.5377   -0.9485    0.2954 N   0  0  0  0  0  0  0  0  0  0  0  0
   -5.2883    0.5657    0.2609 N   0  0  0  0  0  0  0  0  0  0  0  0
    3.1144   -0.7013    0.5090 C   0  0  1  0  0  0  0  0  0  0  0  0
    2.7653    0.7167    0.9499 C   0  0  2  0  0  0  0  0  0  0  0  0
    2.2729   -0.8592   -0.7544 C   0  0  0  0  0  0  0  0  0  0  0  0
    1.3397    0.9451    0.4376 C   0  0  0  0  0  0  0  0  0  0  0  0
    0.1115    0.0068   -1.4456 C   0  0  0  0  0  0  0  0  0  0  0  0
    4.9653    1.4398    0.6484 C   0  0  0  0  0  0  0  0  0  0  0  0
    5.4816    0.0733    0.2521 C   0  0  0  0  0  0  0  0  0  0  0  0
    4.9377   -2.3236    0.0267 C   0  0  0  0  0  0  0  0  0  0  0  0
   -1.3169    0.1551   -0.9936 C   0  0  0  0  0  0  0  0  0  0  0  0
   -2.0629   -0.9752   -0.6590 C   0  0  0  0  0  0  0  0  0  0  0  0
   -1.8946    1.4219   -0.9098 C   0  0  0  0  0  0  0  0  0  0  0  0
   -3.3865   -0.8384   -0.2408 C   0  0  0  0  0  0  0  0  0  0  0  0
   -3.2182    1.5587   -0.4916 C   0  0  0  0  0  0  0  0  0  0  0  0
   -3.9641    0.4284   -0.1571 C   0  0  0  0  0  0  0  0  0  0  0  0
   -6.1864   -0.4428    0.6347 C   0  0  0  0  0  0  0  0  0  0  0  0
   -7.5298    0.1212    1.0241 C   0  0  0  0  0  0  0  0  0  0  0  0
    2.7640   -1.4084    1.2741 H   0  0  0  0  0  0  0  0  0  0  0  0
    2.8371    0.8508    2.0355 H   0  0  0  0  0  0  0  0  0  0  0  0
    2.7224   -0.3239   -1.6012 H   0  0  0  0  0  0  0  0  0  0  0  0
    2.1490   -1.9112   -1.0312 H   0  0  0  0  0  0  0  0  0  0  0  0
    0.6423    1.0326    1.2776 H   0  0  0  0  0  0  0  0  0  0  0  0
    1.2827    1.8647   -0.1575 H   0  0  0  0  0  0  0  0  0  0  0  0
    0.1320   -0.8363   -2.1509 H   0  0  0  0  0  0  0  0  0  0  0  0
    0.4330    0.8764   -2.0346 H   0  0  0  0  0  0  0  0  0  0  0  0
    5.1018    1.5770    1.7270 H   0  0  0  0  0  0  0  0  0  0  0  0
    5.5654    2.1955    0.1313 H   0  0  0  0  0  0  0  0  0  0  0  0
    4.5507   -2.9693    0.8200 H   0  0  0  0  0  0  0  0  0  0  0  0
    6.0257   -2.4222   -0.0113 H   0  0  0  0  0  0  0  0  0  0  0  0
    4.5233   -2.6329   -0.9367 H   0  0  0  0  0  0  0  0  0  0  0  0
   -1.6230   -1.9672   -0.7207 H   0  0  0  0  0  0  0  0  0  0  0  0
   -1.3242    2.3106   -1.1665 H   0  0  0  0  0  0  0  0  0  0  0  0
   -3.9001   -1.7585    0.0009 H   0  0  0  0  0  0  0  0  0  0  0  0
   -3.6554    2.5521   -0.4308 H   0  0  0  0  0  0  0  0  0  0  0  0
   -5.6359    1.5219    0.2951 H   0  0  0  0  0  0  0  0  0  0  0  0
   -7.9516    0.6867    0.1883 H   0  0  0  0  0  0  0  0  0  0  0  0
   -7.4171    0.7787    1.8907 H   0  0  0  0  0  0  0  0  0  0  0  0
   -8.2132   -0.6928    1.2815 H   0  0  0  0  0  0  0  0  0  0  0  0
  1  8  1  0  0  0  0
  1 12  1  0  0  0  0
  2 13  2  0  0  0  0
  3 21  2  0  0  0  0
  4  9  1  0  0  0  0
  4 10  1  0  0  0  0
  4 11  1  0  0  0  0
  5  7  1  0  0  0  0
  5 13  1  0  0  0  0
  5 14  1  0  0  0  0
  6 20  1  0  0  0  0
  6 21  1  0  0  0  0
  6 40  1  0  0  0  0
  7  8  1  0  0  0  0
  7  9  1  0  0  0  0
  7 23  1  0  0  0  0
  8 10  1  0  0  0  0
  8 24  1  0  0  0  0
  9 25  1  0  0  0  0
  9 26  1  0  0  0  0
 10 27  1  0  0  0  0
 10 28  1  0  0  0  0
 11 15  1  0  0  0  0
 11 29  1  0  0  0  0
 11 30  1  0  0  0  0
 12 13  1  0  0  0  0
 12 31  1  0  0  0  0
 12 32  1  0  0  0  0
 14 33  1  0  0  0  0
 14 34  1  0  0  0  0
 14 35  1  0  0  0  0
 15 16  2  0  0  0  0
 15 17  1  0  0  0  0
 16 18  1  0  0  0  0
 16 36  1  0  0  0  0
 17 19  2  0  0  0  0
 17 37  1  0  0  0  0
 18 20  2  0  0  0  0
 18 38  1  0  0  0  0
 19 20  1  0  0  0  0
 19 39  1  0  0  0  0
 21 22  1  0  0  0  0
 22 41  1  0  0  0  0
 22 42  1  0  0  0  0
 22 43  1  0  0  0  0
M  END
> <PUBCHEM_COMPOUND_CID>
56775103

> <PUBCHEM_CONFORMER_RMSD>
0.8

> <PUBCHEM_CONFORMER_DIVERSEORDER>
1
17
26
25
8
9
16
23
3
15
19
27
21
20
4
24
14
7
10
22
18
6
2
28
5
11
12
13

> <PUBCHEM_MMFF94_PARTIAL_CHARGES>
27
1 -0.56
10 0.27
11 0.41
12 0.34
13 0.57
14 0.3
15 -0.14
16 -0.15
17 -0.15
18 -0.15
19 -0.15
2 -0.57
20 0.12
21 0.57
22 0.06
3 -0.57
36 0.15
37 0.15
38 0.15
39 0.15
4 -0.81
40 0.37
5 -0.66
6 -0.55
7 0.3
8 0.28
9 0.27

> <PUBCHEM_EFFECTIVE_ROTOR_COUNT>
5.2

> <PUBCHEM_PHARMACOPHORE_FEATURES>
8
1 1 acceptor
1 2 acceptor
1 3 acceptor
1 4 cation
1 6 donor
5 4 7 8 9 10 rings
6 1 5 7 8 12 13 rings
6 15 16 17 18 19 20 rings

> <PUBCHEM_HEAVY_ATOM_COUNT>
22

> <PUBCHEM_ATOM_DEF_STEREO_COUNT>
2

> <PUBCHEM_ATOM_UDEF_STEREO_COUNT>
0

> <PUBCHEM_BOND_DEF_STEREO_COUNT>
0

> <PUBCHEM_BOND_UDEF_STEREO_COUNT>
0

> <PUBCHEM_ISOTOPIC_ATOM_COUNT>
0

> <PUBCHEM_COMPONENT_COUNT>
1

> <PUBCHEM_CACTVS_TAUTO_COUNT>
6

> <PUBCHEM_CONFORMER_ID>
036251BF00000001

> <PUBCHEM_MMFF94_ENERGY>
63.9935

> <PUBCHEM_FEATURE_SELFOVERLAP>
40.749

> <PUBCHEM_SHAPE_FINGERPRINT>
10 15 18337381738733725592
10354089 29 18273213106133106048
10447042 23 12757142485443995072
106641 1 18335704979074108497
11089746 13 14477236067848383731
12107183 9 17693375542813899194
12236239 1 16660363662496876077
12507560 40 18410289186039151149
12516196 113 16950000335458569613
12596602 18 18411702088972577347
12616971 3 17560792234400750332
12633257 1 17775283898022625079
12730499 353 18408039611804398162
13073987 5 18340201882910872064
13533116 47 18410292476084573434
13685833 64 18260831479411395730
13968360 50 11674872295335336448
14123256 10 12829207780257882345
1420 363 17967814950887596531
14251752 14 9583523101194551797
14251764 18 17989204871954270247
14341114 176 18411699885200952460
14617045 38 18409451379943973686
14933364 13 18412546517791682424
15475509 35 17604695678749768026
15716309 27 18186521007897440163
17844677 252 18336267860129185676
1813 80 16950563264026695660
18222031 100 16370727019399597767
20281389 69 17131830963058893705
21150785 3 14201402698179564350
21267235 1 18343304726578944470
22122407 14 16916798426295818947
22224240 67 18131913771952952207
23198884 109 9943809980847470835
23402539 116 11167934762397947201
23559900 14 18187077378114100717
2838139 119 15482669053410961225
29717793 49 11891325427085623016
300161 21 10592039154844857204
3009799 131 7925914768242527838
312425 54 18334864900856790827
3472631 163 12607393404055976035
351380 3 16225765225098934059
3545911 37 18341891896549023948
4073 2 18261677089937442978
4325135 7 17676211290600440148
4340502 62 18334573551581603994
465052 167 18342175527884387862
5104073 3 18339351955890354968
5385378 56 15913058577097883367
542803 24 16845568720909856548
57724786 102 16486677186601876848
59682541 35 17458345290755954608
59755656 520 15410890756500631677
9996256 80 18201997759403337055

> <PUBCHEM_SHAPE_MULTIPOLES>
420.2
17.72
1.64
1.04
10.89
0.22
-0.13
2.65
6.54
-1.11
0.05
0.51
-0.06
0.81

> <PUBCHEM_SHAPE_SELFOVERLAP>
889.539

> <PUBCHEM_SHAPE_VOLUME>
236.4

> <PUBCHEM_COORDINATE_TYPE>
2
5
10

$$$$
