25313098
  -OEChem-12032416193D

 65 68  0     1  0  0  0  0  0999 V2000
   -2.7299   -3.1908    1.8401 O   0  0  0  0  0  0  0  0  0  0  0  0
   -5.0485    4.6374    0.5027 O   0  0  0  0  0  0  0  0  0  0  0  0
   -6.2952    2.7416    0.3226 O   0  0  0  0  0  0  0  0  0  0  0  0
   -3.2317   -1.6109    0.2190 N   0  0  0  0  0  0  0  0  0  0  0  0
    0.9581    1.0968   -0.7068 N   0  0  0  0  0  0  0  0  0  0  0  0
    3.7492    0.7439   -0.2127 N   0  0  0  0  0  0  0  0  0  0  0  0
   -2.8000    0.5493   -0.9261 C   0  0  2  0  0  0  0  0  0  0  0  0
   -4.0027    1.1541   -0.1572 C   0  0  1  0  0  0  0  0  0  0  0  0
   -2.9882   -0.9709   -1.0782 C   0  0  0  0  0  0  0  0  0  0  0  0
   -4.2520    0.4201    1.1715 C   0  0  0  0  0  0  0  0  0  0  0  0
   -1.4373    0.8565   -0.2925 C   0  0  0  0  0  0  0  0  0  0  0  0
   -4.3794   -1.0862    0.9584 C   0  0  0  0  0  0  0  0  0  0  0  0
   -1.2803   -3.1567   -0.0907 C   0  0  0  0  0  0  0  0  0  0  0  0
   -0.5697   -4.4447    0.3747 C   0  0  0  0  0  0  0  0  0  0  0  0
   -1.5945   -3.8970   -1.4073 C   0  0  0  0  0  0  0  0  0  0  0  0
   -2.4714   -2.6652    0.7468 C   0  0  0  0  0  0  0  0  0  0  0  0
   -3.8716    2.6590    0.0750 C   0  0  0  0  0  0  0  0  0  0  0  0
   -0.3605   -4.7768   -1.1175 C   0  0  0  0  0  0  0  0  0  0  0  0
   -0.3316    0.8185   -1.3377 C   0  0  0  0  0  0  0  0  0  0  0  0
    1.9477    1.4991   -1.7135 C   0  0  0  0  0  0  0  0  0  0  0  0
    1.4393   -0.0825    0.0232 C   0  0  0  0  0  0  0  0  0  0  0  0
    3.2873    1.8478   -1.0599 C   0  0  0  0  0  0  0  0  0  0  0  0
    2.7611    0.2142    0.7353 C   0  0  0  0  0  0  0  0  0  0  0  0
   -5.2104    3.3035    0.3066 C   0  0  0  0  0  0  0  0  0  0  0  0
    5.1032    0.6501    0.1279 C   0  0  0  0  0  0  0  0  0  0  0  0
    5.8763    1.8058    0.2390 C   0  0  0  0  0  0  0  0  0  0  0  0
    5.6789   -0.5991    0.3595 C   0  0  0  0  0  0  0  0  0  0  0  0
    7.2253    1.7124    0.5819 C   0  0  0  0  0  0  0  0  0  0  0  0
    7.0278   -0.6925    0.7025 C   0  0  0  0  0  0  0  0  0  0  0  0
    7.8009    0.4633    0.8136 C   0  0  0  0  0  0  0  0  0  0  0  0
   -2.8175    0.9878   -1.9337 H   0  0  0  0  0  0  0  0  0  0  0  0
   -4.8843    0.9778   -0.7915 H   0  0  0  0  0  0  0  0  0  0  0  0
   -3.8663   -1.1779   -1.7024 H   0  0  0  0  0  0  0  0  0  0  0  0
   -2.1314   -1.3945   -1.5941 H   0  0  0  0  0  0  0  0  0  0  0  0
   -5.1613    0.7871    1.6593 H   0  0  0  0  0  0  0  0  0  0  0  0
   -3.4212    0.6143    1.8618 H   0  0  0  0  0  0  0  0  0  0  0  0
   -1.2527    0.1681    0.5370 H   0  0  0  0  0  0  0  0  0  0  0  0
   -1.4312    1.8597    0.1469 H   0  0  0  0  0  0  0  0  0  0  0  0
   -4.4839   -1.5874    1.9256 H   0  0  0  0  0  0  0  0  0  0  0  0
   -5.2779   -1.3153    0.3732 H   0  0  0  0  0  0  0  0  0  0  0  0
   -0.5467   -2.3503   -0.2338 H   0  0  0  0  0  0  0  0  0  0  0  0
   -1.2104   -5.1662    0.8949 H   0  0  0  0  0  0  0  0  0  0  0  0
    0.3454   -4.2997    0.9551 H   0  0  0  0  0  0  0  0  0  0  0  0
   -1.5240   -3.3263   -2.3361 H   0  0  0  0  0  0  0  0  0  0  0  0
   -2.5419   -4.4489   -1.4012 H   0  0  0  0  0  0  0  0  0  0  0  0
   -3.2380    2.8728    0.9427 H   0  0  0  0  0  0  0  0  0  0  0  0
   -3.4370    3.1345   -0.8123 H   0  0  0  0  0  0  0  0  0  0  0  0
    0.5732   -4.3792   -1.5317 H   0  0  0  0  0  0  0  0  0  0  0  0
   -0.4527   -5.8312   -1.3890 H   0  0  0  0  0  0  0  0  0  0  0  0
   -0.5539    1.5969   -2.0797 H   0  0  0  0  0  0  0  0  0  0  0  0
   -0.3084   -0.1336   -1.8807 H   0  0  0  0  0  0  0  0  0  0  0  0
    1.5964    2.3846   -2.2572 H   0  0  0  0  0  0  0  0  0  0  0  0
    2.0951    0.6992   -2.4518 H   0  0  0  0  0  0  0  0  0  0  0  0
    1.5791   -0.9313   -0.6602 H   0  0  0  0  0  0  0  0  0  0  0  0
    0.7295   -0.3997    0.7930 H   0  0  0  0  0  0  0  0  0  0  0  0
    4.0108    2.0536   -1.8586 H   0  0  0  0  0  0  0  0  0  0  0  0
    3.1759    2.7591   -0.4584 H   0  0  0  0  0  0  0  0  0  0  0  0
    2.6020    0.9471    1.5370 H   0  0  0  0  0  0  0  0  0  0  0  0
    3.1075   -0.7116    1.2090 H   0  0  0  0  0  0  0  0  0  0  0  0
   -5.9045    5.0907    0.6577 H   0  0  0  0  0  0  0  0  0  0  0  0
    5.4582    2.7957    0.0803 H   0  0  0  0  0  0  0  0  0  0  0  0
    5.0973   -1.5123    0.2643 H   0  0  0  0  0  0  0  0  0  0  0  0
    7.8268    2.6122    0.6717 H   0  0  0  0  0  0  0  0  0  0  0  0
    7.4771   -1.6652    0.8800 H   0  0  0  0  0  0  0  0  0  0  0  0
    8.8511    0.3905    1.0806 H   0  0  0  0  0  0  0  0  0  0  0  0
  1 16  2  0  0  0  0
  2 24  1  0  0  0  0
  2 60  1  0  0  0  0
  3 24  2  0  0  0  0
  4  9  1  0  0  0  0
  4 12  1  0  0  0  0
  4 16  1  0  0  0  0
  5 19  1  0  0  0  0
  5 20  1  0  0  0  0
  5 21  1  0  0  0  0
  6 22  1  0  0  0  0
  6 23  1  0  0  0  0
  6 25  1  0  0  0  0
  7  8  1  0  0  0  0
  7  9  1  0  0  0  0
  7 11  1  0  0  0  0
  7 31  1  0  0  0  0
  8 10  1  0  0  0  0
  8 17  1  0  0  0  0
  8 32  1  0  0  0  0
  9 33  1  0  0  0  0
  9 34  1  0  0  0  0
 10 12  1  0  0  0  0
 10 35  1  0  0  0  0
 10 36  1  0  0  0  0
 11 19  1  0  0  0  0
 11 37  1  0  0  0  0
 11 38  1  0  0  0  0
 12 39  1  0  0  0  0
 12 40  1  0  0  0  0
 13 14  1  0  0  0  0
 13 15  1  0  0  0  0
 13 16  1  0  0  0  0
 13 41  1  0  0  0  0
 14 18  1  0  0  0  0
 14 42  1  0  0  0  0
 14 43  1  0  0  0  0
 15 18  1  0  0  0  0
 15 44  1  0  0  0  0
 15 45  1  0  0  0  0
 17 24  1  0  0  0  0
 17 46  1  0  0  0  0
 17 47  1  0  0  0  0
 18 48  1  0  0  0  0
 18 49  1  0  0  0  0
 19 50  1  0  0  0  0
 19 51  1  0  0  0  0
 20 22  1  0  0  0  0
 20 52  1  0  0  0  0
 20 53  1  0  0  0  0
 21 23  1  0  0  0  0
 21 54  1  0  0  0  0
 21 55  1  0  0  0  0
 22 56  1  0  0  0  0
 22 57  1  0  0  0  0
 23 58  1  0  0  0  0
 23 59  1  0  0  0  0
 25 26  2  0  0  0  0
 25 27  1  0  0  0  0
 26 28  1  0  0  0  0
 26 61  1  0  0  0  0
 27 29  2  0  0  0  0
 27 62  1  0  0  0  0
 28 30  2  0  0  0  0
 28 63  1  0  0  0  0
 29 30  1  0  0  0  0
 29 64  1  0  0  0  0
 30 65  1  0  0  0  0
M  END
> <PUBCHEM_COMPOUND_CID>
25313098

> <PUBCHEM_CONFORMER_RMSD>
1

> <PUBCHEM_CONFORMER_DIVERSEORDER>
1
56
139
63
200
69
190
65
43
143
96
151
213
79
118
172
227
169
166
231
195
134
95
202
216
226
235
161
164
90
217
115
165
205
24
85
53
196
163
176
62
29
41
68
183
138
222
210
207
28
233
55
109
142
130
66
108
152
203
223
125
38
193
220
77
132
82
49
97
162
194
17
181
112
173
61
225
201
67
27
45
180
158
128
182
14
160
26
64
234
204
103
99
101
114
88
11
174
192
105
117
18
131
32
232
30
199
93
229
228
59
185
89
52
94
6
13
119
149
31
171
120
133
135
126
15
127
86
75
178
50
191
137
197
145
5
22
37
35
141
21
219
129
211
7
71
122
148
110
221
186
144
230
102
154
184
9
83
33
168
150
212
104
54
198
100
106
80
157
39
224
175
153
188
74
124
208
8
189
51
187
84
206
48
179
123
87
81
91
40
140
113
2
170
47
72
116
36
209
215
3
44
98
146
218
57
78
73
16
155
177
147
20
19
111
167
25
107
156
92
46
4
214
76
121
136
159
70
42
34
23
58
60
10
12

> <PUBCHEM_MMFF94_PARTIAL_CHARGES>
29
1 -0.57
12 0.3
13 0.05
16 0.58
17 0.06
19 0.27
2 -0.65
20 0.27
21 0.27
22 0.37
23 0.37
24 0.66
25 0.1
26 -0.15
27 -0.15
28 -0.15
29 -0.15
3 -0.57
30 -0.15
4 -0.66
5 -0.81
6 -0.84
60 0.5
61 0.15
62 0.15
63 0.15
64 0.15
65 0.15
9 0.3

> <PUBCHEM_EFFECTIVE_ROTOR_COUNT>
11.2

> <PUBCHEM_PHARMACOPHORE_FEATURES>
10
1 1 acceptor
1 2 acceptor
1 3 acceptor
1 5 cation
1 6 cation
3 2 3 24 anion
4 13 14 15 18 rings
6 25 26 27 28 29 30 rings
6 4 7 8 9 10 12 rings
6 5 6 20 21 22 23 rings

> <PUBCHEM_HEAVY_ATOM_COUNT>
30

> <PUBCHEM_ATOM_DEF_STEREO_COUNT>
2

> <PUBCHEM_ATOM_UDEF_STEREO_COUNT>
0

> <PUBCHEM_BOND_DEF_STEREO_COUNT>
0

> <PUBCHEM_BOND_UDEF_STEREO_COUNT>
0

> <PUBCHEM_ISOTOPIC_ATOM_COUNT>
0

> <PUBCHEM_COMPONENT_COUNT>
1

> <PUBCHEM_CACTVS_TAUTO_COUNT>
1

> <PUBCHEM_CONFORMER_ID>
01823F4A00000001

> <PUBCHEM_MMFF94_ENERGY>
79.225

> <PUBCHEM_FEATURE_SELFOVERLAP>
50.806

> <PUBCHEM_SHAPE_FINGERPRINT>
10675989 125 17836934390902194521
10864689 126 18197510519807934198
11049842 53 18118715164814792364
11524674 6 18272367576943211990
12107183 9 18261111846777446708
12422481 6 18412544345329969998
12616971 3 16950286221836412636
12988421 55 18058467451599973241
14659021 117 18127114501827881911
14844126 61 18266178516379783843
14856354 85 17167870772184054744
15021287 119 17240759640516214084
15064986 96 18265059037618100867
15250474 111 18119526789871143774
15348495 7 18339920519756811688
15439362 3 17977946783567149357
15537594 2 17095234796739318480
16110190 28 18187366549608629588
16994733 274 16342873032227259489
17780758 139 18333731355254214753
20554085 129 18129366117438125745
21987440 362 18119248363756711060
229767 44 18333734610797058485
23516275 137 18117856408407488514
23522609 53 17605016800490953876
255183 451 8933839264249741993
312425 54 18335130991403318568
3383291 50 18336826519505743507
3411729 13 18122344571884745163
397830 11 17843393245275376952
4073 2 18335421288284630864
484985 159 18191855945484779935
5080951 261 17970883731207123772
5104073 3 18261382391484408664
5265222 85 18341610438483086080
5364581 5 17911509115428598552
5385378 56 18124886655632544329
58260988 114 16733274563826608907
68570916 9 18189331450646389764
7226269 152 17989208131407628608
9896288 288 18409173233603795659
9981440 41 18411145701956043689

> <PUBCHEM_SHAPE_MULTIPOLES>
584.83
17.33
5.62
1.29
30.55
4.74
0.17
-14.1
-6.36
-9.92
0.27
-0.37
0.46
-0.62

> <PUBCHEM_SHAPE_SELFOVERLAP>
1216.694

> <PUBCHEM_SHAPE_VOLUME>
329.8

> <PUBCHEM_COORDINATE_TYPE>
2
5
10

$$$$
