25338476
  -OEChem-12032416203D

 51 54  0     1  0  0  0  0  0999 V2000
    2.2999   -2.5005   -1.1024 O   0  0  0  0  0  0  0  0  0  0  0  0
   -4.2226   -0.0863   -1.0565 O   0  0  0  0  0  0  0  0  0  0  0  0
   -0.5312   -2.9932    0.9371 N   0  0  1  0  0  0  0  0  0  0  0  0
   -2.6614   -0.9113    0.4606 N   0  0  0  0  0  0  0  0  0  0  0  0
    1.4673   -0.7359   -0.0024 N   0  0  0  0  0  0  0  0  0  0  0  0
    3.3406   -1.5667   -1.0196 N   0  0  0  0  0  0  0  0  0  0  0  0
    5.5279    1.9320   -0.1348 N   0  0  0  0  0  0  0  0  0  0  0  0
   -2.3969   -2.1710   -0.1933 C   0  0  1  0  0  0  0  0  0  0  0  0
   -1.2125   -2.0682   -1.1543 C   0  0  0  0  0  0  0  0  0  0  0  0
   -0.0363   -2.7541   -0.4322 C   0  0  1  0  0  0  0  0  0  0  0  0
   -1.9714   -3.2356    0.8067 C   0  0  0  0  0  0  0  0  0  0  0  0
   -3.6587    1.2320    0.8546 C   0  0  0  0  0  0  0  0  0  0  0  0
   -4.7336    2.1833    0.3249 C   0  0  0  0  0  0  0  0  0  0  0  0
   -2.2973    1.9104    1.0200 C   0  0  0  0  0  0  0  0  0  0  0  0
   -4.2791    2.9788   -0.8978 C   0  0  0  0  0  0  0  0  0  0  0  0
   -1.8715    2.7252   -0.2009 C   0  0  0  0  0  0  0  0  0  0  0  0
   -3.5554    0.0244   -0.0312 C   0  0  0  0  0  0  0  0  0  0  0  0
   -2.9591    3.6973   -0.6428 C   0  0  0  0  0  0  0  0  0  0  0  0
    1.2341   -1.9324   -0.4798 C   0  0  0  0  0  0  0  0  0  0  0  0
    0.1473   -4.0953    1.6084 C   0  0  0  0  0  0  0  0  0  0  0  0
    2.7723   -0.5544   -0.3578 C   0  0  0  0  0  0  0  0  0  0  0  0
    3.4795    0.6518   -0.0374 C   0  0  0  0  0  0  0  0  0  0  0  0
    2.8566    1.6866    0.6515 C   0  0  0  0  0  0  0  0  0  0  0  0
    4.8045    0.8223   -0.4049 C   0  0  0  0  0  0  0  0  0  0  0  0
    3.5680    2.8441    0.9477 C   0  0  0  0  0  0  0  0  0  0  0  0
    4.8891    2.9167    0.5363 C   0  0  0  0  0  0  0  0  0  0  0  0
   -3.3030   -2.4755   -0.7289 H   0  0  0  0  0  0  0  0  0  0  0  0
   -1.0025   -1.0307   -1.4402 H   0  0  0  0  0  0  0  0  0  0  0  0
   -1.4379   -2.6238   -2.0732 H   0  0  0  0  0  0  0  0  0  0  0  0
    0.1472   -3.7133   -0.9377 H   0  0  0  0  0  0  0  0  0  0  0  0
   -2.4885   -3.1454    1.7680 H   0  0  0  0  0  0  0  0  0  0  0  0
   -2.1673   -4.2332    0.3924 H   0  0  0  0  0  0  0  0  0  0  0  0
   -3.9865    0.8654    1.8372 H   0  0  0  0  0  0  0  0  0  0  0  0
   -4.9869    2.8948    1.1220 H   0  0  0  0  0  0  0  0  0  0  0  0
   -5.6611    1.6466    0.0911 H   0  0  0  0  0  0  0  0  0  0  0  0
   -1.4955    1.2087    1.2712 H   0  0  0  0  0  0  0  0  0  0  0  0
   -2.3658    2.5975    1.8744 H   0  0  0  0  0  0  0  0  0  0  0  0
   -2.1718   -0.7286    1.3310 H   0  0  0  0  0  0  0  0  0  0  0  0
   -5.0488    3.7159   -1.1549 H   0  0  0  0  0  0  0  0  0  0  0  0
   -4.1750    2.3236   -1.7696 H   0  0  0  0  0  0  0  0  0  0  0  0
   -1.6307    2.0455   -1.0276 H   0  0  0  0  0  0  0  0  0  0  0  0
   -0.9547    3.2797    0.0300 H   0  0  0  0  0  0  0  0  0  0  0  0
   -3.1017    4.4632    0.1295 H   0  0  0  0  0  0  0  0  0  0  0  0
   -2.6407    4.2176   -1.5532 H   0  0  0  0  0  0  0  0  0  0  0  0
    1.2159   -3.8824    1.7190 H   0  0  0  0  0  0  0  0  0  0  0  0
    0.0398   -5.0427    1.0681 H   0  0  0  0  0  0  0  0  0  0  0  0
   -0.2544   -4.2297    2.6187 H   0  0  0  0  0  0  0  0  0  0  0  0
    1.8191    1.6193    0.9688 H   0  0  0  0  0  0  0  0  0  0  0  0
    5.3628    0.0631   -0.9445 H   0  0  0  0  0  0  0  0  0  0  0  0
    3.1030    3.6638    1.4833 H   0  0  0  0  0  0  0  0  0  0  0  0
    5.4873    3.7979    0.7428 H   0  0  0  0  0  0  0  0  0  0  0  0
  1  6  1  0  0  0  0
  1 19  1  0  0  0  0
  2 17  2  0  0  0  0
  3 10  1  0  0  0  0
  3 11  1  0  0  0  0
  3 20  1  0  0  0  0
  4  8  1  0  0  0  0
  4 17  1  0  0  0  0
  4 38  1  0  0  0  0
  5 19  2  0  0  0  0
  5 21  1  0  0  0  0
  6 21  2  0  0  0  0
  7 24  1  0  0  0  0
  7 26  2  0  0  0  0
  8  9  1  0  0  0  0
  8 11  1  0  0  0  0
  8 27  1  0  0  0  0
  9 10  1  0  0  0  0
  9 28  1  0  0  0  0
  9 29  1  0  0  0  0
 10 19  1  0  0  0  0
 10 30  1  0  0  0  0
 11 31  1  0  0  0  0
 11 32  1  0  0  0  0
 12 13  1  0  0  0  0
 12 14  1  0  0  0  0
 12 17  1  0  0  0  0
 12 33  1  0  0  0  0
 13 15  1  0  0  0  0
 13 34  1  0  0  0  0
 13 35  1  0  0  0  0
 14 16  1  0  0  0  0
 14 36  1  0  0  0  0
 14 37  1  0  0  0  0
 15 18  1  0  0  0  0
 15 39  1  0  0  0  0
 15 40  1  0  0  0  0
 16 18  1  0  0  0  0
 16 41  1  0  0  0  0
 16 42  1  0  0  0  0
 18 43  1  0  0  0  0
 18 44  1  0  0  0  0
 20 45  1  0  0  0  0
 20 46  1  0  0  0  0
 20 47  1  0  0  0  0
 21 22  1  0  0  0  0
 22 23  1  0  0  0  0
 22 24  2  0  0  0  0
 23 25  2  0  0  0  0
 23 48  1  0  0  0  0
 24 49  1  0  0  0  0
 25 26  1  0  0  0  0
 25 50  1  0  0  0  0
 26 51  1  0  0  0  0
M  END
> <PUBCHEM_COMPOUND_CID>
25338476

> <PUBCHEM_CONFORMER_RMSD>
1

> <PUBCHEM_CONFORMER_DIVERSEORDER>
1
39
10
105
117
11
43
118
30
95
80
38
77
96
50
26
93
59
47
102
100
29
33
16
62
84
99
114
88
69
82
52
44
97
13
73
72
54
107
41
64
90
60
70
101
116
111
7
58
37
8
86
28
46
81
15
48
25
45
68
75
23
87
108
51
53
22
112
79
5
6
85
103
27
18
12
40
34
63
74
109
115
17
55
67
19
110
89
49
104
66
78
32
14
42
65
36
2
83
98
56
31
24
57
91
4
9
21
92
106
35
61
76
113
71
94
20
3

> <PUBCHEM_MMFF94_PARTIAL_CHARGES>
25
1 -0.02
10 0.45
11 0.27
12 0.06
17 0.57
19 0.3
2 -0.57
20 0.27
21 0.46
22 0.05
23 -0.15
24 0.16
25 -0.15
26 0.16
3 -0.81
38 0.37
4 -0.73
48 0.15
49 0.15
5 -0.57
50 0.15
51 0.15
6 -0.41
7 -0.62
8 0.3

> <PUBCHEM_EFFECTIVE_ROTOR_COUNT>
7.2

> <PUBCHEM_PHARMACOPHORE_FEATURES>
9
1 2 acceptor
1 3 cation
1 4 donor
1 7 acceptor
3 5 6 21 cation
5 1 5 6 19 21 rings
5 3 8 9 10 11 rings
6 12 13 14 15 16 18 rings
6 7 22 23 24 25 26 rings

> <PUBCHEM_HEAVY_ATOM_COUNT>
26

> <PUBCHEM_ATOM_DEF_STEREO_COUNT>
2

> <PUBCHEM_ATOM_UDEF_STEREO_COUNT>
0

> <PUBCHEM_BOND_DEF_STEREO_COUNT>
0

> <PUBCHEM_BOND_UDEF_STEREO_COUNT>
0

> <PUBCHEM_ISOTOPIC_ATOM_COUNT>
0

> <PUBCHEM_COMPONENT_COUNT>
1

> <PUBCHEM_CACTVS_TAUTO_COUNT>
2

> <PUBCHEM_CONFORMER_ID>
0182A26C00000001

> <PUBCHEM_MMFF94_ENERGY>
43.5746

> <PUBCHEM_FEATURE_SELFOVERLAP>
45.672

> <PUBCHEM_SHAPE_FINGERPRINT>
10439779 11 17616517472303394856
10670039 82 18122358032302416484
10871710 139 18340761646077635639
1100329 8 18193835947467997834
11221954 11 18343026596480158118
11370993 70 18410853226866980877
12100795 323 18410007732448021876
12107183 9 18261940861765776594
12769317 202 18270675359965568816
12788726 201 18119799455363950387
13402501 40 18199187467384898873
13561361 72 18123744511705954840
13590594 115 17187858514750881562
1361 2 18336542725494495981
138480 1 17401203374569186987
13965767 371 17750229210169316582
14251764 38 18411974758892109050
14251764 75 18127701439506565345
14347329 18 18269554009014746312
14466204 15 18121494649117542746
14468879 13 18260838059733985865
14848178 96 18341328898955472865
16067690 210 17686312662622902784
16992787 43 18411130343670367405
18681886 176 17619900670068020603
20398071 114 18412261731263577616
21279426 13 18272102582715559854
21344244 78 16240670973698766283
23559900 14 18128532656962972186
3117164 225 18335688418044550298
325973 47 18124594446863083080
376196 1 18341894073860462566
469060 322 18048337813902708859
508706 21 18340205305752101248
5939293 188 17546444475532077127
6608658 132 17334215023473531012
7288768 16 18259702324098807851
7808743 9 18410291445160066336
9981440 41 18335137604988478899

> <PUBCHEM_SHAPE_MULTIPOLES>
498.42
10.5
5.76
1.14
6.01
1.49
-0.1
-11.64
0.56
-1.64
-0.98
-0.19
0.46
1.49

> <PUBCHEM_SHAPE_SELFOVERLAP>
1063.844

> <PUBCHEM_SHAPE_VOLUME>
275.8

> <PUBCHEM_COORDINATE_TYPE>
2
5
10

$$$$
