51136599
  -OEChem-12032416143D

 64 67  0     1  0  0  0  0  0999 V2000
    1.1800    3.0716    2.3180 O   0  0  0  0  0  0  0  0  0  0  0  0
    6.6675   -2.6660   -0.0384 O   0  0  0  0  0  0  0  0  0  0  0  0
    6.8778   -0.4016   -0.1318 O   0  0  0  0  0  0  0  0  0  0  0  0
   -2.4032   -2.4815    2.7442 O   0  0  0  0  0  0  0  0  0  0  0  0
   -4.6266   -2.2520    1.0981 O   0  0  0  0  0  0  0  0  0  0  0  0
    2.1822    2.0290    0.4789 N   0  0  0  0  0  0  0  0  0  0  0  0
    0.7062   -1.2694   -2.3061 N   0  0  0  0  0  0  0  0  0  0  0  0
   -5.1141    2.3274   -1.6379 N   0  0  0  0  0  0  0  0  0  0  0  0
    2.6422   -0.0268   -0.8394 C   0  0  2  0  0  0  0  0  0  0  0  0
    4.0737   -0.0407   -0.2449 C   0  0  1  0  0  0  0  0  0  0  0  0
    4.1241    0.6573    1.1249 C   0  0  0  0  0  0  0  0  0  0  0  0
    2.0934    1.4118   -0.8520 C   0  0  0  0  0  0  0  0  0  0  0  0
    3.5259    2.0595    1.0531 C   0  0  0  0  0  0  0  0  0  0  0  0
    1.6617   -0.9645   -0.1239 C   0  0  0  0  0  0  0  0  0  0  0  0
    4.6743   -1.4434   -0.1572 C   0  0  0  0  0  0  0  0  0  0  0  0
    0.4959   -1.2764   -1.0311 C   0  0  0  0  0  0  0  0  0  0  0  0
    1.1112    2.5594    1.2019 C   0  0  0  0  0  0  0  0  0  0  0  0
   -0.8269   -1.5669   -0.4216 C   0  0  0  0  0  0  0  0  0  0  0  0
    6.1767   -1.4020   -0.1104 C   0  0  0  0  0  0  0  0  0  0  0  0
   -1.9439   -1.4674   -1.2611 C   0  0  0  0  0  0  0  0  0  0  0  0
   -1.7367   -1.0669   -2.6915 C   0  0  0  0  0  0  0  0  0  0  0  0
   -0.4111   -1.6316   -3.1849 C   0  0  0  0  0  0  0  0  0  0  0  0
   -0.2231    2.5107    0.5937 C   0  0  0  0  0  0  0  0  0  0  0  0
   -0.9799   -1.9101    0.9229 C   0  0  0  0  0  0  0  0  0  0  0  0
   -3.2212   -1.6888   -0.7389 C   0  0  0  0  0  0  0  0  0  0  0  0
   -2.2581   -2.1446    1.4315 C   0  0  0  0  0  0  0  0  0  0  0  0
   -3.3759   -2.0317    0.6043 C   0  0  0  0  0  0  0  0  0  0  0  0
   -0.4593    3.1517   -0.6225 C   0  0  0  0  0  0  0  0  0  0  0  0
   -1.2551    1.8221    1.2314 C   0  0  0  0  0  0  0  0  0  0  0  0
   -1.7275    3.1038   -1.2011 C   0  0  0  0  0  0  0  0  0  0  0  0
   -2.5233    1.7744    0.6526 C   0  0  0  0  0  0  0  0  0  0  0  0
   -2.7595    2.4150   -0.5636 C   0  0  0  0  0  0  0  0  0  0  0  0
   -2.5732   -1.4119    3.6719 C   0  0  0  0  0  0  0  0  0  0  0  0
   -5.7156   -2.1163    0.1872 C   0  0  0  0  0  0  0  0  0  0  0  0
   -4.0589    2.3667   -1.1565 C   0  0  0  0  0  0  0  0  0  0  0  0
    2.7685   -0.3343   -1.8851 H   0  0  0  0  0  0  0  0  0  0  0  0
    4.6915    0.5573   -0.9315 H   0  0  0  0  0  0  0  0  0  0  0  0
    3.5653    0.0665    1.8619 H   0  0  0  0  0  0  0  0  0  0  0  0
    5.1535    0.7297    1.4921 H   0  0  0  0  0  0  0  0  0  0  0  0
    1.0825    1.3952   -1.2528 H   0  0  0  0  0  0  0  0  0  0  0  0
    2.6930    2.0342   -1.5279 H   0  0  0  0  0  0  0  0  0  0  0  0
    3.5117    2.5064    2.0523 H   0  0  0  0  0  0  0  0  0  0  0  0
    4.1402    2.7057    0.4149 H   0  0  0  0  0  0  0  0  0  0  0  0
    2.1253   -1.9291    0.1063 H   0  0  0  0  0  0  0  0  0  0  0  0
    1.3266   -0.5233    0.8186 H   0  0  0  0  0  0  0  0  0  0  0  0
    4.3989   -2.0201   -1.0483 H   0  0  0  0  0  0  0  0  0  0  0  0
    4.3172   -1.9711    0.7341 H   0  0  0  0  0  0  0  0  0  0  0  0
   -1.7335    0.0277   -2.7545 H   0  0  0  0  0  0  0  0  0  0  0  0
   -2.5483   -1.4414   -3.3253 H   0  0  0  0  0  0  0  0  0  0  0  0
   -0.2066   -1.2419   -4.1881 H   0  0  0  0  0  0  0  0  0  0  0  0
   -0.4575   -2.7245   -3.2698 H   0  0  0  0  0  0  0  0  0  0  0  0
   -0.1250   -2.0148    1.5841 H   0  0  0  0  0  0  0  0  0  0  0  0
   -4.0513   -1.5772   -1.4282 H   0  0  0  0  0  0  0  0  0  0  0  0
    7.6479   -2.6762   -0.0059 H   0  0  0  0  0  0  0  0  0  0  0  0
    0.3271    3.7108   -1.1234 H   0  0  0  0  0  0  0  0  0  0  0  0
   -1.0827    1.3175    2.1783 H   0  0  0  0  0  0  0  0  0  0  0  0
   -1.8972    3.6115   -2.1476 H   0  0  0  0  0  0  0  0  0  0  0  0
   -3.3181    1.2358    1.1629 H   0  0  0  0  0  0  0  0  0  0  0  0
   -1.6733   -0.7898    3.7042 H   0  0  0  0  0  0  0  0  0  0  0  0
   -3.4425   -0.8018    3.4067 H   0  0  0  0  0  0  0  0  0  0  0  0
   -2.7369   -1.8414    4.6640 H   0  0  0  0  0  0  0  0  0  0  0  0
   -5.8035   -1.0903   -0.1865 H   0  0  0  0  0  0  0  0  0  0  0  0
   -5.6603   -2.8527   -0.6218 H   0  0  0  0  0  0  0  0  0  0  0  0
   -6.6321   -2.3290    0.7474 H   0  0  0  0  0  0  0  0  0  0  0  0
  1 17  2  0  0  0  0
  2 19  1  0  0  0  0
  2 54  1  0  0  0  0
  3 19  2  0  0  0  0
  4 26  1  0  0  0  0
  4 33  1  0  0  0  0
  5 27  1  0  0  0  0
  5 34  1  0  0  0  0
  6 12  1  0  0  0  0
  6 13  1  0  0  0  0
  6 17  1  0  0  0  0
  7 16  2  0  0  0  0
  7 22  1  0  0  0  0
  8 35  3  0  0  0  0
  9 10  1  0  0  0  0
  9 12  1  0  0  0  0
  9 14  1  0  0  0  0
  9 36  1  0  0  0  0
 10 11  1  0  0  0  0
 10 15  1  0  0  0  0
 10 37  1  0  0  0  0
 11 13  1  0  0  0  0
 11 38  1  0  0  0  0
 11 39  1  0  0  0  0
 12 40  1  0  0  0  0
 12 41  1  0  0  0  0
 13 42  1  0  0  0  0
 13 43  1  0  0  0  0
 14 16  1  0  0  0  0
 14 44  1  0  0  0  0
 14 45  1  0  0  0  0
 15 19  1  0  0  0  0
 15 46  1  0  0  0  0
 15 47  1  0  0  0  0
 16 18  1  0  0  0  0
 17 23  1  0  0  0  0
 18 20  1  0  0  0  0
 18 24  2  0  0  0  0
 20 21  1  0  0  0  0
 20 25  2  0  0  0  0
 21 22  1  0  0  0  0
 21 48  1  0  0  0  0
 21 49  1  0  0  0  0
 22 50  1  0  0  0  0
 22 51  1  0  0  0  0
 23 28  2  0  0  0  0
 23 29  1  0  0  0  0
 24 26  1  0  0  0  0
 24 52  1  0  0  0  0
 25 27  1  0  0  0  0
 25 53  1  0  0  0  0
 26 27  2  0  0  0  0
 28 30  1  0  0  0  0
 28 55  1  0  0  0  0
 29 31  2  0  0  0  0
 29 56  1  0  0  0  0
 30 32  2  0  0  0  0
 30 57  1  0  0  0  0
 31 32  1  0  0  0  0
 31 58  1  0  0  0  0
 32 35  1  0  0  0  0
 33 59  1  0  0  0  0
 33 60  1  0  0  0  0
 33 61  1  0  0  0  0
 34 62  1  0  0  0  0
 34 63  1  0  0  0  0
 34 64  1  0  0  0  0
M  END
> <PUBCHEM_COMPOUND_CID>
51136599

> <PUBCHEM_CONFORMER_RMSD>
1

> <PUBCHEM_CONFORMER_DIVERSEORDER>
1
39
50
35
36
95
83
61
12
10
20
71
59
19
68
94
90
30
77
54
45
84
18
28
22
49
60
85
96
62
93
97
52
8
29
89
58
55
4
57
43
24
38
16
27
73
41
65
78
91
17
15
40
26
33
31
66
82
13
5
81
34
7
11
72
48
51
46
63
21
23
86
56
3
14
53
25
88
42
6
69
67
80
79
92
87
75
74
32
9
64
70
37
47
2
76
44

> <PUBCHEM_MMFF94_PARTIAL_CHARGES>
39
1 -0.57
12 0.3
13 0.3
14 0.06
15 0.06
16 0.3
17 0.54
18 0.09
19 0.66
2 -0.65
20 -0.14
21 0.14
22 0.25
23 0.09
24 -0.15
25 -0.15
26 0.08
27 0.08
28 -0.15
29 -0.15
3 -0.57
30 -0.15
31 -0.15
32 0.07
33 0.28
34 0.28
35 0.48
4 -0.36
5 -0.36
52 0.15
53 0.15
54 0.5
55 0.15
56 0.15
57 0.15
58 0.15
6 -0.66
7 -0.7
8 -0.56

> <PUBCHEM_EFFECTIVE_ROTOR_COUNT>
9.6

> <PUBCHEM_PHARMACOPHORE_FEATURES>
12
1 1 acceptor
1 2 acceptor
1 3 acceptor
1 4 acceptor
1 5 acceptor
1 7 acceptor
1 8 acceptor
3 2 3 19 anion
6 18 20 24 25 26 27 rings
6 23 28 29 30 31 32 rings
6 6 9 10 11 12 13 rings
6 7 16 18 20 21 22 rings

> <PUBCHEM_HEAVY_ATOM_COUNT>
35

> <PUBCHEM_ATOM_DEF_STEREO_COUNT>
2

> <PUBCHEM_ATOM_UDEF_STEREO_COUNT>
0

> <PUBCHEM_BOND_DEF_STEREO_COUNT>
0

> <PUBCHEM_BOND_UDEF_STEREO_COUNT>
0

> <PUBCHEM_ISOTOPIC_ATOM_COUNT>
0

> <PUBCHEM_COMPONENT_COUNT>
1

> <PUBCHEM_CACTVS_TAUTO_COUNT>
1

> <PUBCHEM_CONFORMER_ID>
030C485700000001

> <PUBCHEM_MMFF94_ENERGY>
111.4528

> <PUBCHEM_FEATURE_SELFOVERLAP>
60.989

> <PUBCHEM_SHAPE_FINGERPRINT>
10032420 55 18049134706287779589
10119406 146 17694791723209461350
11135609 12 18409725201452519416
11421498 54 16666879552928447357
11607047 403 13316637919450063589
12107698 1 18413388756414850591
12128747 34 18262237699139079318
12156800 1 17536642548687813673
12422481 6 18272942647810703137
13140716 1 18272937098655401912
13402501 40 18342731888930832749
13965767 371 17557447640277499163
14840074 17 17838628008086498956
17492 54 18054768621274901645
20764821 26 17703525324114173284
21133410 90 17203322334626591953
23559900 14 17096651100306466278
24893992 56 17895472644692100059
3380486 145 17988651769844069646
3383291 50 18130211658458374342
35225 105 18193542389998742319
513202 73 18199763440565995686
59755656 520 17823132320106497030
6009941 240 18187925028770315942
70251023 43 18127389349691440078

> <PUBCHEM_SHAPE_MULTIPOLES>
675.99
10.99
4.31
2.57
13.89
2.45
0.55
-6.14
0.57
-2.56
0.54
-2.41
-1.15
2.71

> <PUBCHEM_SHAPE_SELFOVERLAP>
1452.97

> <PUBCHEM_SHAPE_VOLUME>
368.7

> <PUBCHEM_COORDINATE_TYPE>
2
5
10

$$$$
