75536726
  -OEChem-12032416313D

 50 51  0     1  0  0  0  0  0999 V2000
   -6.5926   -0.3368    0.9300 F   0  0  0  0  0  0  0  0  0  0  0  0
   -7.0328    1.7168    0.3664 F   0  0  0  0  0  0  0  0  0  0  0  0
    1.0242    0.2400   -1.2806 O   0  0  0  0  0  0  0  0  0  0  0  0
    0.0870   -1.8693    1.4723 O   0  0  0  0  0  0  0  0  0  0  0  0
    4.5542   -0.5320    1.3729 O   0  0  0  0  0  0  0  0  0  0  0  0
   -2.2710   -1.0482   -0.4361 N   0  0  0  0  0  0  0  0  0  0  0  0
    3.7222   -0.6294   -0.7939 N   0  0  0  0  0  0  0  0  0  0  0  0
    5.6499    0.5615   -0.3555 N   0  0  0  0  0  0  0  0  0  0  0  0
   -3.3360   -0.0478   -0.3919 C   0  0  0  0  0  0  0  0  0  0  0  0
   -0.9763   -0.4337   -0.1916 C   0  0  1  0  0  0  0  0  0  0  0  0
    0.1211   -1.4319    0.1276 C   0  0  1  0  0  0  0  0  0  0  0  0
   -4.5507   -0.5458   -1.1846 C   0  0  0  0  0  0  0  0  0  0  0  0
   -3.7084    0.2518    1.0653 C   0  0  0  0  0  0  0  0  0  0  0  0
    1.3650   -0.6052   -0.1690 C   0  0  1  0  0  0  0  0  0  0  0  0
   -0.4072    0.2561   -1.4207 C   0  0  0  0  0  0  0  0  0  0  0  0
   -5.7115    0.4436   -1.1015 C   0  0  0  0  0  0  0  0  0  0  0  0
   -4.8688    1.2418    1.1494 C   0  0  0  0  0  0  0  0  0  0  0  0
   -6.0645    0.7675    0.3406 C   0  0  0  0  0  0  0  0  0  0  0  0
    2.5776   -1.4492   -0.5188 C   0  0  0  0  0  0  0  0  0  0  0  0
    4.6364   -0.2267    0.1840 C   0  0  0  0  0  0  0  0  0  0  0  0
    6.7233    1.1085    0.4405 C   0  0  0  0  0  0  0  0  0  0  0  0
    7.1770    2.4458   -0.1303 C   0  0  0  0  0  0  0  0  0  0  0  0
    7.8819    0.1228    0.5255 C   0  0  0  0  0  0  0  0  0  0  0  0
   -3.0083    0.8837   -0.8724 H   0  0  0  0  0  0  0  0  0  0  0  0
   -1.0208    0.2779    0.6420 H   0  0  0  0  0  0  0  0  0  0  0  0
    0.0621   -2.3076   -0.5308 H   0  0  0  0  0  0  0  0  0  0  0  0
   -4.8809   -1.5191   -0.7977 H   0  0  0  0  0  0  0  0  0  0  0  0
   -4.2798   -0.6981   -2.2367 H   0  0  0  0  0  0  0  0  0  0  0  0
   -2.8639    0.6702    1.6228 H   0  0  0  0  0  0  0  0  0  0  0  0
   -3.9968   -0.6746    1.5800 H   0  0  0  0  0  0  0  0  0  0  0  0
   -2.4504   -1.7777    0.2531 H   0  0  0  0  0  0  0  0  0  0  0  0
    1.6067    0.0506    0.6779 H   0  0  0  0  0  0  0  0  0  0  0  0
   -0.6465   -0.2792   -2.3468 H   0  0  0  0  0  0  0  0  0  0  0  0
   -0.7469    1.2910   -1.5233 H   0  0  0  0  0  0  0  0  0  0  0  0
   -5.4555    1.3673   -1.6344 H   0  0  0  0  0  0  0  0  0  0  0  0
   -6.5868    0.0207   -1.6074 H   0  0  0  0  0  0  0  0  0  0  0  0
   -5.1631    1.3696    2.1973 H   0  0  0  0  0  0  0  0  0  0  0  0
   -4.5478    2.2269    0.7898 H   0  0  0  0  0  0  0  0  0  0  0  0
    2.3923   -2.0325   -1.4274 H   0  0  0  0  0  0  0  0  0  0  0  0
    2.8154   -2.1405    0.2967 H   0  0  0  0  0  0  0  0  0  0  0  0
    0.1366   -1.0885    2.0493 H   0  0  0  0  0  0  0  0  0  0  0  0
    3.8677   -0.3133   -1.7478 H   0  0  0  0  0  0  0  0  0  0  0  0
    5.6732    0.6952   -1.3620 H   0  0  0  0  0  0  0  0  0  0  0  0
    6.3429    1.2784    1.4550 H   0  0  0  0  0  0  0  0  0  0  0  0
    7.5624    2.3338   -1.1499 H   0  0  0  0  0  0  0  0  0  0  0  0
    6.3422    3.1542   -0.1697 H   0  0  0  0  0  0  0  0  0  0  0  0
    7.9669    2.8872    0.4862 H   0  0  0  0  0  0  0  0  0  0  0  0
    8.2880   -0.0986   -0.4679 H   0  0  0  0  0  0  0  0  0  0  0  0
    7.5579   -0.8261    0.9668 H   0  0  0  0  0  0  0  0  0  0  0  0
    8.6920    0.5230    1.1440 H   0  0  0  0  0  0  0  0  0  0  0  0
  1 18  1  0  0  0  0
  2 18  1  0  0  0  0
  3 14  1  0  0  0  0
  3 15  1  0  0  0  0
  4 11  1  0  0  0  0
  4 41  1  0  0  0  0
  5 20  2  0  0  0  0
  6  9  1  0  0  0  0
  6 10  1  0  0  0  0
  6 31  1  0  0  0  0
  7 19  1  0  0  0  0
  7 20  1  0  0  0  0
  7 42  1  0  0  0  0
  8 20  1  0  0  0  0
  8 21  1  0  0  0  0
  8 43  1  0  0  0  0
  9 12  1  0  0  0  0
  9 13  1  0  0  0  0
  9 24  1  0  0  0  0
 10 11  1  0  0  0  0
 10 15  1  0  0  0  0
 10 25  1  0  0  0  0
 11 14  1  0  0  0  0
 11 26  1  0  0  0  0
 12 16  1  0  0  0  0
 12 27  1  0  0  0  0
 12 28  1  0  0  0  0
 13 17  1  0  0  0  0
 13 29  1  0  0  0  0
 13 30  1  0  0  0  0
 14 19  1  0  0  0  0
 14 32  1  0  0  0  0
 15 33  1  0  0  0  0
 15 34  1  0  0  0  0
 16 18  1  0  0  0  0
 16 35  1  0  0  0  0
 16 36  1  0  0  0  0
 17 18  1  0  0  0  0
 17 37  1  0  0  0  0
 17 38  1  0  0  0  0
 19 39  1  0  0  0  0
 19 40  1  0  0  0  0
 21 22  1  0  0  0  0
 21 23  1  0  0  0  0
 21 44  1  0  0  0  0
 22 45  1  0  0  0  0
 22 46  1  0  0  0  0
 22 47  1  0  0  0  0
 23 48  1  0  0  0  0
 23 49  1  0  0  0  0
 23 50  1  0  0  0  0
M  END
> <PUBCHEM_COMPOUND_CID>
75536726

> <PUBCHEM_CONFORMER_RMSD>
1

> <PUBCHEM_CONFORMER_DIVERSEORDER>
1
22
136
25
21
59
126
130
86
83
76
53
143
84
42
67
119
49
88
125
37
131
120
97
11
129
20
134
116
96
100
105
104
45
91
26
73
103
23
30
55
41
144
140
89
52
108
4
85
133
75
92
137
141
38
43
112
44
98
58
61
113
39
106
94
68
128
54
70
51
18
62
36
138
65
135
99
132
46
101
5
90
48
60
13
127
82
117
79
123
111
69
32
27
80
2
121
124
74
17
64
14
77
118
10
142
19
72
34
7
12
63
31
24
78
57
15
16
145
107
81
47
95
29
56
110
102
66
50
71
87
93
9
8
6
28
109
139
114
35
122
40
33
3
115

> <PUBCHEM_MMFF94_PARTIAL_CHARGES>
21
1 -0.34
10 0.27
11 0.28
14 0.28
15 0.28
18 0.68
19 0.3
2 -0.34
20 0.69
21 0.3
3 -0.56
31 0.36
4 -0.68
41 0.4
42 0.37
43 0.37
5 -0.57
6 -0.9
7 -0.73
8 -0.73
9 0.27

> <PUBCHEM_EFFECTIVE_ROTOR_COUNT>
9.2

> <PUBCHEM_PHARMACOPHORE_FEATURES>
11
1 3 acceptor
1 4 acceptor
1 4 donor
1 5 acceptor
1 6 cation
1 6 donor
1 7 donor
1 8 donor
3 21 22 23 hydrophobe
5 3 10 11 14 15 rings
6 9 12 13 16 17 18 rings

> <PUBCHEM_HEAVY_ATOM_COUNT>
23

> <PUBCHEM_ATOM_DEF_STEREO_COUNT>
3

> <PUBCHEM_ATOM_UDEF_STEREO_COUNT>
0

> <PUBCHEM_BOND_DEF_STEREO_COUNT>
0

> <PUBCHEM_BOND_UDEF_STEREO_COUNT>
0

> <PUBCHEM_ISOTOPIC_ATOM_COUNT>
0

> <PUBCHEM_COMPONENT_COUNT>
1

> <PUBCHEM_CACTVS_TAUTO_COUNT>
3

> <PUBCHEM_CONFORMER_ID>
0480995600000001

> <PUBCHEM_MMFF94_ENERGY>
29.502

> <PUBCHEM_FEATURE_SELFOVERLAP>
55.87

> <PUBCHEM_SHAPE_FINGERPRINT>
10 15 17022624199876246412
10087517 78 18201439147277564601
106641 1 18040720298655803619
10670039 82 14764357011377901834
10906281 52 18262248806393388318
11315181 36 18412259563328174423
11524674 6 15719395044425310721
117890 112 18343021099364760622
11991303 11 14189282811756828940
12236239 1 18341612573667615199
12596602 18 18261112950409507979
12616971 3 15864355791672422806
12670543 26 13110968612732886502
13288520 33 11025798700137944647
13533116 47 17968652719267838250
13540713 5 16880495936581021638
13631057 29 18337386171546676159
13668630 136 10592041358121050829
13685833 64 11314307248573445574
13862211 1 8286200556451669958
14123256 10 15123510306889226394
14251764 18 18114183072511386366
14347332 77 11023568864992492700
14849402 71 18338519762669073765
15048467 5 18202845448255100854
15183329 4 14476966679373958446
15348495 7 16443355324682037852
15706992 2 18270695241205632288
15716309 27 13479136799817288207
17093844 174 16443058388503342797
1768 124 12252174170166322064
17834072 8 14692569927349280882
17980427 23 18115588287469898446
20281389 69 18408322164290398820
20526848 3 18272091604125276336
20735858 18 16877663456740127642
21130935 74 17895195459427648803
21150785 3 14620792704397150364
21267235 1 10879985874904355231
21637258 2 11891332075515778806
22224240 67 17967532384810169659
23035841 295 11169914983182515141
23081809 10 17989196036584550734
23559900 14 14979662313077089179
23576562 1 14548150196217817801
2838139 119 17917709127752130592
300161 21 18273495646108952967
3004659 81 13398629455342450110
33532 11 8430319030610582448
4073 2 18342460361003830350
4325135 7 17846779598231561424
4340502 62 16298384656741278602
445580 37 17060064747881160904
465052 167 11314312741588755986
5104073 3 16733845222798075556
543368 44 18272370858978174929
5758199 1 18334296469807706930
59682541 35 17821733861522309233
59682541 52 15984838017313513172
59755656 215 12823301186703726444
6438161 24 11527956621711480812
7495541 125 14562826459976230527

> <PUBCHEM_SHAPE_MULTIPOLES>
426.23
21.97
1.59
1.24
15.13
0.45
0.05
12.95
2.6
1.11
0.16
-0.71
-0.1
-0.84

> <PUBCHEM_SHAPE_SELFOVERLAP>
859.973

> <PUBCHEM_SHAPE_VOLUME>
252.2

> <PUBCHEM_COORDINATE_TYPE>
2
5
10

$$$$
