38030443
  -OEChem-12032416363D

 58 60  0     1  0  0  0  0  0999 V2000
   -1.7605    1.4996   -0.6019 O   0  0  0  0  0  0  0  0  0  0  0  0
    2.1075   -2.6905    0.6899 N   0  0  2  0  0  0  0  0  0  0  0  0
   -0.7695    1.7646    1.3861 N   0  0  0  0  0  0  0  0  0  0  0  0
   -1.9476    1.0692    1.5854 N   0  0  0  0  0  0  0  0  0  0  0  0
   -5.7085   -0.9139    0.6270 N   0  0  0  0  0  0  0  0  0  0  0  0
    2.8609   -0.2517   -0.7418 C   0  0  1  0  0  0  0  0  0  0  0  0
    2.9337   -0.3806    0.7976 C   0  0  1  0  0  0  0  0  0  0  0  0
    1.6805    0.6400   -1.1518 C   0  0  0  0  0  0  0  0  0  0  0  0
    1.7293    2.0478   -0.5204 C   0  0  2  0  0  0  0  0  0  0  0  0
    4.1810    0.2738   -1.3222 C   0  0  0  0  0  0  0  0  0  0  0  0
    2.2015    2.0359    0.9256 C   0  0  0  0  0  0  0  0  0  0  0  0
    2.7260    0.9373    1.4993 C   0  0  0  0  0  0  0  0  0  0  0  0
    1.9200   -1.3994    1.3287 C   0  0  0  0  0  0  0  0  0  0  0  0
    0.3567    2.7100   -0.6940 C   0  0  0  0  0  0  0  0  0  0  0  0
    5.2417   -0.8225   -1.3092 C   0  0  0  0  0  0  0  0  0  0  0  0
    3.9670    0.8027   -2.7367 C   0  0  0  0  0  0  0  0  0  0  0  0
    2.1191    3.3263    1.6940 C   0  0  0  0  0  0  0  0  0  0  0  0
   -0.7015    1.9943    0.0956 C   0  0  0  0  0  0  0  0  0  0  0  0
    0.8813   -3.4905    0.7624 C   0  0  0  0  0  0  0  0  0  0  0  0
    3.2206   -3.4193    1.3051 C   0  0  0  0  0  0  0  0  0  0  0  0
   -2.4925    0.9376    0.3985 C   0  0  0  0  0  0  0  0  0  0  0  0
   -0.1020   -3.0325   -0.2241 C   0  0  0  0  0  0  0  0  0  0  0  0
   -3.7164    0.3046    0.0009 C   0  0  0  0  0  0  0  0  0  0  0  0
   -0.9108   -2.6616   -1.0302 C   0  0  0  0  0  0  0  0  0  0  0  0
   -4.1113    0.2796   -1.3321 C   0  0  0  0  0  0  0  0  0  0  0  0
   -4.5431   -0.3010    0.9335 C   0  0  0  0  0  0  0  0  0  0  0  0
   -5.3037   -0.3414   -1.6867 C   0  0  0  0  0  0  0  0  0  0  0  0
   -6.0593   -0.9183   -0.6786 C   0  0  0  0  0  0  0  0  0  0  0  0
    2.6827   -1.2308   -1.2035 H   0  0  0  0  0  0  0  0  0  0  0  0
    3.9353   -0.7112    1.0899 H   0  0  0  0  0  0  0  0  0  0  0  0
    0.7712    0.1170   -0.8308 H   0  0  0  0  0  0  0  0  0  0  0  0
    1.5552    0.7108   -2.2379 H   0  0  0  0  0  0  0  0  0  0  0  0
    2.4507    2.6606   -1.0741 H   0  0  0  0  0  0  0  0  0  0  0  0
    4.5623    1.1073   -0.7191 H   0  0  0  0  0  0  0  0  0  0  0  0
    3.0496    0.9797    2.5372 H   0  0  0  0  0  0  0  0  0  0  0  0
    0.9117   -1.0070    1.1416 H   0  0  0  0  0  0  0  0  0  0  0  0
    1.9925   -1.4841    2.4226 H   0  0  0  0  0  0  0  0  0  0  0  0
    0.0808    2.7176   -1.7561 H   0  0  0  0  0  0  0  0  0  0  0  0
    0.3816    3.7594   -0.3785 H   0  0  0  0  0  0  0  0  0  0  0  0
    4.9193   -1.6974   -1.8846 H   0  0  0  0  0  0  0  0  0  0  0  0
    5.4859   -1.1546   -0.2969 H   0  0  0  0  0  0  0  0  0  0  0  0
    6.1739   -0.4597   -1.7567 H   0  0  0  0  0  0  0  0  0  0  0  0
    3.4687    0.0641   -3.3747 H   0  0  0  0  0  0  0  0  0  0  0  0
    4.9358    1.0184   -3.2037 H   0  0  0  0  0  0  0  0  0  0  0  0
    3.4125    1.7426   -2.7759 H   0  0  0  0  0  0  0  0  0  0  0  0
    2.5963    4.1325    1.1268 H   0  0  0  0  0  0  0  0  0  0  0  0
    2.6352    3.2624    2.6584 H   0  0  0  0  0  0  0  0  0  0  0  0
    1.0845    3.6117    1.9001 H   0  0  0  0  0  0  0  0  0  0  0  0
    1.1037   -4.5391    0.5241 H   0  0  0  0  0  0  0  0  0  0  0  0
    0.4558   -3.4852    1.7738 H   0  0  0  0  0  0  0  0  0  0  0  0
    4.1642   -2.8735    1.2131 H   0  0  0  0  0  0  0  0  0  0  0  0
    3.3790   -4.3758    0.7936 H   0  0  0  0  0  0  0  0  0  0  0  0
    3.0426   -3.6266    2.3668 H   0  0  0  0  0  0  0  0  0  0  0  0
   -1.6280   -2.3291   -1.7438 H   0  0  0  0  0  0  0  0  0  0  0  0
   -3.5147    0.7330   -2.1194 H   0  0  0  0  0  0  0  0  0  0  0  0
   -4.2966   -0.3192    1.9913 H   0  0  0  0  0  0  0  0  0  0  0  0
   -5.6314   -0.3735   -2.7194 H   0  0  0  0  0  0  0  0  0  0  0  0
   -6.9975   -1.4152   -0.9029 H   0  0  0  0  0  0  0  0  0  0  0  0
  1 18  1  0  0  0  0
  1 21  1  0  0  0  0
  2 13  1  0  0  0  0
  2 19  1  0  0  0  0
  2 20  1  0  0  0  0
  3  4  1  0  0  0  0
  3 18  2  0  0  0  0
  4 21  2  0  0  0  0
  5 26  1  0  0  0  0
  5 28  2  0  0  0  0
  6  7  1  0  0  0  0
  6  8  1  0  0  0  0
  6 10  1  0  0  0  0
  6 29  1  0  0  0  0
  7 12  1  0  0  0  0
  7 13  1  0  0  0  0
  7 30  1  0  0  0  0
  8  9  1  0  0  0  0
  8 31  1  0  0  0  0
  8 32  1  0  0  0  0
  9 11  1  0  0  0  0
  9 14  1  0  0  0  0
  9 33  1  0  0  0  0
 10 15  1  0  0  0  0
 10 16  1  0  0  0  0
 10 34  1  0  0  0  0
 11 12  2  0  0  0  0
 11 17  1  0  0  0  0
 12 35  1  0  0  0  0
 13 36  1  0  0  0  0
 13 37  1  0  0  0  0
 14 18  1  0  0  0  0
 14 38  1  0  0  0  0
 14 39  1  0  0  0  0
 15 40  1  0  0  0  0
 15 41  1  0  0  0  0
 15 42  1  0  0  0  0
 16 43  1  0  0  0  0
 16 44  1  0  0  0  0
 16 45  1  0  0  0  0
 17 46  1  0  0  0  0
 17 47  1  0  0  0  0
 17 48  1  0  0  0  0
 19 22  1  0  0  0  0
 19 49  1  0  0  0  0
 19 50  1  0  0  0  0
 20 51  1  0  0  0  0
 20 52  1  0  0  0  0
 20 53  1  0  0  0  0
 21 23  1  0  0  0  0
 22 24  3  0  0  0  0
 23 25  1  0  0  0  0
 23 26  2  0  0  0  0
 24 54  1  0  0  0  0
 25 27  2  0  0  0  0
 25 55  1  0  0  0  0
 26 56  1  0  0  0  0
 27 28  1  0  0  0  0
 27 57  1  0  0  0  0
 28 58  1  0  0  0  0
M  END
> <PUBCHEM_COMPOUND_CID>
38030443

> <PUBCHEM_CONFORMER_RMSD>
1

> <PUBCHEM_CONFORMER_DIVERSEORDER>
7
125
158
93
61
87
115
55
57
99
97
45
30
39
62
151
92
20
38
44
146
67
142
88
148
83
51
11
28
131
106
69
41
126
27
137
63
78
80
133
35
26
119
103
111
130
54
118
75
149
74
124
101
58
56
14
114
121
25
40
50
96
128
10
9
113
94
144
46
141
71
49
2
161
12
81
15
107
48
16
150
147
72
89
34
37
17
116
8
73
117
153
59
52
84
76
66
43
23
157
152
68
138
47
134
143
85
29
123
129
36
82
122
91
4
53
33
60
120
65
132
145
139
32
22
156
162
102
70
79
6
104
112
3
155
127
31
140
154
109
21
95
100
19
136
110
64
1
13
86
108
5
160
105
98
42
77
18
159
90
135
24

> <PUBCHEM_MMFF94_PARTIAL_CHARGES>
29
1 -0.28
11 -0.28
12 -0.29
13 0.27
14 0.18
17 0.14
18 0.3
19 0.47
2 -0.81
20 0.27
21 0.43
22 -0.2
23 0.05
24 -0.18
25 -0.15
26 0.16
27 -0.15
28 0.16
3 -0.34
35 0.15
4 -0.34
5 -0.62
54 0.18
55 0.15
56 0.15
57 0.15
58 0.15
7 0.14
9 0.14

> <PUBCHEM_EFFECTIVE_ROTOR_COUNT>
7.8

> <PUBCHEM_PHARMACOPHORE_FEATURES>
7
1 2 cation
1 24 hydrophobe
1 5 acceptor
3 10 15 16 hydrophobe
5 1 3 4 18 21 rings
6 5 23 25 26 27 28 rings
6 6 7 8 9 11 12 rings

> <PUBCHEM_HEAVY_ATOM_COUNT>
28

> <PUBCHEM_ATOM_DEF_STEREO_COUNT>
3

> <PUBCHEM_ATOM_UDEF_STEREO_COUNT>
0

> <PUBCHEM_BOND_DEF_STEREO_COUNT>
0

> <PUBCHEM_BOND_UDEF_STEREO_COUNT>
0

> <PUBCHEM_ISOTOPIC_ATOM_COUNT>
0

> <PUBCHEM_COMPONENT_COUNT>
1

> <PUBCHEM_CACTVS_TAUTO_COUNT>
1

> <PUBCHEM_CONFORMER_ID>
02444C6B00000007

> <PUBCHEM_MMFF94_ENERGY>
58.0625

> <PUBCHEM_FEATURE_SELFOVERLAP>
35.522

> <PUBCHEM_SHAPE_FINGERPRINT>
10816530 23 16413212299036574134
11069576 57 18188770535563189006
11796584 16 17988915691985838741
12597179 24 17984135144135291576
13150687 139 17677634097655247836
13911987 19 17751669708315716244
14117953 113 17838606770068910615
14251764 30 16772691918365010764
14863182 85 18334007281602417946
15001296 14 18200863102411547215
16114785 44 16334109164155399096
17134984 74 18193541476020547887
17492 54 18187660110517731582
18336668 15 18118389662724811690
19319366 153 18333732438192881942
20028762 73 17775002414382692951
20465049 17 18336559299303474590
20775530 9 17975693887808849491
22393880 68 18341891857868256757
23559900 14 18114183090034614485
238 59 18260836998539109138
239999 70 18059572537520532724
3052486 1 18191022503228199506
3298306 158 18261102007265542175
34797466 226 16515402980745605935
404807 78 17388271288477156595
46194498 28 17023194867833164517
463206 1 18409726223348650923
6287921 2 17488184782076965551
6669772 16 18268424806209175680

> <PUBCHEM_SHAPE_MULTIPOLES>
550.43
10.78
3.92
1.94
14.6
2.16
-0.49
2.5
-3.96
-3.07
1.54
-1.43
-0.4
-0.67

> <PUBCHEM_SHAPE_SELFOVERLAP>
1152.014

> <PUBCHEM_SHAPE_VOLUME>
309.9

> <PUBCHEM_COORDINATE_TYPE>
2
5
10

$$$$
