45361375
  -OEChem-12032416133D

 83 85  0     1  0  0  0  0  0999 V2000
    1.3914    1.7165   -0.2699 O   0  0  0  0  0  0  0  0  0  0  0  0
    5.6634   -1.0331   -1.6180 O   0  0  0  0  0  0  0  0  0  0  0  0
   -4.5085   -0.7846    2.1944 O   0  0  0  0  0  0  0  0  0  0  0  0
    5.5573    3.9964    1.1611 O   0  0  0  0  0  0  0  0  0  0  0  0
    6.2404   -2.2361    0.9728 O   0  0  0  0  0  0  0  0  0  0  0  0
   -9.7306    1.3000   -0.7095 O   0  0  0  0  0  0  0  0  0  0  0  0
   -3.6261   -0.2895    0.1083 N   0  0  0  0  0  0  0  0  0  0  0  0
    5.9291    0.4661    0.1244 N   0  0  0  0  0  0  0  0  0  0  0  0
    0.3018   -1.9334   -0.5289 C   0  0  1  0  0  0  0  0  0  0  0  0
    0.2198   -0.4183   -0.1457 C   0  0  2  0  0  0  0  0  0  0  0  0
   -1.2281    0.1415   -0.3861 C   0  0  1  0  0  0  0  0  0  0  0  0
    1.3691    0.3940   -0.8091 C   0  0  2  0  0  0  0  0  0  0  0  0
    1.7050   -2.4800   -0.1747 C   0  0  0  0  0  0  0  0  0  0  0  0
    2.7633   -0.2176   -0.5373 C   0  0  1  0  0  0  0  0  0  0  0  0
   -0.7344   -2.7213    0.3054 C   0  0  0  0  0  0  0  0  0  0  0  0
   -2.2698   -0.7050    0.3983 C   0  0  2  0  0  0  0  0  0  0  0  0
    2.8310   -1.7116   -0.8538 C   0  0  0  0  0  0  0  0  0  0  0  0
   -2.1562   -2.2061    0.1335 C   0  0  0  0  0  0  0  0  0  0  0  0
    0.0374   -2.1801   -2.0359 C   0  0  0  0  0  0  0  0  0  0  0  0
    3.8675    0.5193   -1.3052 C   0  0  2  0  0  0  0  0  0  0  0  0
   -1.3876    1.6223   -0.0020 C   0  0  0  0  0  0  0  0  0  0  0  0
    3.5933    0.4258   -2.8071 C   0  0  0  0  0  0  0  0  0  0  0  0
    5.2311   -0.0824   -0.9568 C   0  0  0  0  0  0  0  0  0  0  0  0
   -4.6409   -0.3675    1.0467 C   0  0  0  0  0  0  0  0  0  0  0  0
   -5.9824    0.0732    0.5850 C   0  0  0  0  0  0  0  0  0  0  0  0
    5.5069    1.6081    0.9329 C   0  0  0  0  0  0  0  0  0  0  0  0
    7.2218   -0.0987    0.4964 C   0  0  0  0  0  0  0  0  0  0  0  0
    6.0223    2.9166    0.3618 C   0  0  0  0  0  0  0  0  0  0  0  0
    7.0705   -1.2159    1.5126 C   0  0  0  0  0  0  0  0  0  0  0  0
   -7.1311   -0.4541    1.1751 C   0  0  0  0  0  0  0  0  0  0  0  0
   -6.0934    1.0128   -0.4401 C   0  0  0  0  0  0  0  0  0  0  0  0
   -8.3906   -0.0422    0.7401 C   0  0  0  0  0  0  0  0  0  0  0  0
   -7.3529    1.4247   -0.8751 C   0  0  0  0  0  0  0  0  0  0  0  0
   -8.5015    0.8973   -0.2850 C   0  0  0  0  0  0  0  0  0  0  0  0
    6.0105    5.2473    0.6619 C   0  0  0  0  0  0  0  0  0  0  0  0
    6.0638   -3.3052    1.8920 C   0  0  0  0  0  0  0  0  0  0  0  0
  -10.8626    0.7208   -0.0622 C   0  0  0  0  0  0  0  0  0  0  0  0
    0.3848   -0.3443    0.9413 H   0  0  0  0  0  0  0  0  0  0  0  0
   -1.4598    0.0774   -1.4568 H   0  0  0  0  0  0  0  0  0  0  0  0
    1.1458    0.4812   -1.8737 H   0  0  0  0  0  0  0  0  0  0  0  0
    1.8562   -2.4319    0.9123 H   0  0  0  0  0  0  0  0  0  0  0  0
    1.7796   -3.5410   -0.4462 H   0  0  0  0  0  0  0  0  0  0  0  0
    2.9721   -0.1073    0.5365 H   0  0  0  0  0  0  0  0  0  0  0  0
   -0.7053   -3.7860    0.0406 H   0  0  0  0  0  0  0  0  0  0  0  0
   -0.4716   -2.6631    1.3702 H   0  0  0  0  0  0  0  0  0  0  0  0
   -2.0950   -0.5431    1.4710 H   0  0  0  0  0  0  0  0  0  0  0  0
    3.7660   -2.1448   -0.4834 H   0  0  0  0  0  0  0  0  0  0  0  0
    2.7936   -1.9291   -1.9225 H   0  0  0  0  0  0  0  0  0  0  0  0
   -2.5230   -2.4414   -0.8731 H   0  0  0  0  0  0  0  0  0  0  0  0
   -2.8157   -2.7552    0.8180 H   0  0  0  0  0  0  0  0  0  0  0  0
    0.7295   -1.6285   -2.6782 H   0  0  0  0  0  0  0  0  0  0  0  0
    0.1478   -3.2440   -2.2770 H   0  0  0  0  0  0  0  0  0  0  0  0
   -0.9698   -1.8877   -2.3437 H   0  0  0  0  0  0  0  0  0  0  0  0
    3.8624    1.5841   -1.0583 H   0  0  0  0  0  0  0  0  0  0  0  0
   -0.8590    2.2717   -0.7053 H   0  0  0  0  0  0  0  0  0  0  0  0
   -2.4334    1.9439   -0.0382 H   0  0  0  0  0  0  0  0  0  0  0  0
   -1.0175    1.8124    1.0108 H   0  0  0  0  0  0  0  0  0  0  0  0
   -3.8337   -0.0429   -0.8538 H   0  0  0  0  0  0  0  0  0  0  0  0
    1.5422    1.6495    0.6884 H   0  0  0  0  0  0  0  0  0  0  0  0
    3.5506   -0.5902   -3.2044 H   0  0  0  0  0  0  0  0  0  0  0  0
    4.4195    0.9097   -3.3450 H   0  0  0  0  0  0  0  0  0  0  0  0
    2.6929    0.9647   -3.1112 H   0  0  0  0  0  0  0  0  0  0  0  0
    4.4162    1.6421    1.0053 H   0  0  0  0  0  0  0  0  0  0  0  0
    5.8574    1.4757    1.9637 H   0  0  0  0  0  0  0  0  0  0  0  0
    7.6963   -0.5007   -0.4065 H   0  0  0  0  0  0  0  0  0  0  0  0
    7.8757    0.6908    0.8821 H   0  0  0  0  0  0  0  0  0  0  0  0
    7.1187    2.9198    0.3495 H   0  0  0  0  0  0  0  0  0  0  0  0
    5.6741    3.0487   -0.6693 H   0  0  0  0  0  0  0  0  0  0  0  0
    8.0566   -1.6312    1.7499 H   0  0  0  0  0  0  0  0  0  0  0  0
    6.6201   -0.8323    2.4354 H   0  0  0  0  0  0  0  0  0  0  0  0
   -7.0642   -1.1906    1.9717 H   0  0  0  0  0  0  0  0  0  0  0  0
   -5.2252    1.4707   -0.9048 H   0  0  0  0  0  0  0  0  0  0  0  0
   -9.2407   -0.4927    1.2410 H   0  0  0  0  0  0  0  0  0  0  0  0
   -7.4336    2.1619   -1.6694 H   0  0  0  0  0  0  0  0  0  0  0  0
    7.1040    5.2904    0.6698 H   0  0  0  0  0  0  0  0  0  0  0  0
    5.6334    5.4156   -0.3515 H   0  0  0  0  0  0  0  0  0  0  0  0
    5.6258    6.0372    1.3126 H   0  0  0  0  0  0  0  0  0  0  0  0
    7.0258   -3.7681    2.1322 H   0  0  0  0  0  0  0  0  0  0  0  0
    5.5770   -2.9494    2.8051 H   0  0  0  0  0  0  0  0  0  0  0  0
    5.4214   -4.0567    1.4252 H   0  0  0  0  0  0  0  0  0  0  0  0
  -10.9106   -0.3609   -0.2271 H   0  0  0  0  0  0  0  0  0  0  0  0
  -10.8947    0.9806    1.0013 H   0  0  0  0  0  0  0  0  0  0  0  0
  -11.7558    1.1543   -0.5240 H   0  0  0  0  0  0  0  0  0  0  0  0
  1 12  1  0  0  0  0
  1 59  1  0  0  0  0
  2 23  2  0  0  0  0
  3 24  2  0  0  0  0
  4 28  1  0  0  0  0
  4 35  1  0  0  0  0
  5 29  1  0  0  0  0
  5 36  1  0  0  0  0
  6 34  1  0  0  0  0
  6 37  1  0  0  0  0
  7 16  1  0  0  0  0
  7 24  1  0  0  0  0
  7 58  1  0  0  0  0
  8 23  1  0  0  0  0
  8 26  1  0  0  0  0
  8 27  1  0  0  0  0
  9 10  1  0  0  0  0
  9 13  1  0  0  0  0
  9 15  1  0  0  0  0
  9 19  1  0  0  0  0
 10 11  1  0  0  0  0
 10 12  1  0  0  0  0
 10 38  1  0  0  0  0
 11 16  1  0  0  0  0
 11 21  1  0  0  0  0
 11 39  1  0  0  0  0
 12 14  1  0  0  0  0
 12 40  1  0  0  0  0
 13 17  1  0  0  0  0
 13 41  1  0  0  0  0
 13 42  1  0  0  0  0
 14 17  1  0  0  0  0
 14 20  1  0  0  0  0
 14 43  1  0  0  0  0
 15 18  1  0  0  0  0
 15 44  1  0  0  0  0
 15 45  1  0  0  0  0
 16 18  1  0  0  0  0
 16 46  1  0  0  0  0
 17 47  1  0  0  0  0
 17 48  1  0  0  0  0
 18 49  1  0  0  0  0
 18 50  1  0  0  0  0
 19 51  1  0  0  0  0
 19 52  1  0  0  0  0
 19 53  1  0  0  0  0
 20 22  1  0  0  0  0
 20 23  1  0  0  0  0
 20 54  1  0  0  0  0
 21 55  1  0  0  0  0
 21 56  1  0  0  0  0
 21 57  1  0  0  0  0
 22 60  1  0  0  0  0
 22 61  1  0  0  0  0
 22 62  1  0  0  0  0
 24 25  1  0  0  0  0
 25 30  2  0  0  0  0
 25 31  1  0  0  0  0
 26 28  1  0  0  0  0
 26 63  1  0  0  0  0
 26 64  1  0  0  0  0
 27 29  1  0  0  0  0
 27 65  1  0  0  0  0
 27 66  1  0  0  0  0
 28 67  1  0  0  0  0
 28 68  1  0  0  0  0
 29 69  1  0  0  0  0
 29 70  1  0  0  0  0
 30 32  1  0  0  0  0
 30 71  1  0  0  0  0
 31 33  2  0  0  0  0
 31 72  1  0  0  0  0
 32 34  2  0  0  0  0
 32 73  1  0  0  0  0
 33 34  1  0  0  0  0
 33 74  1  0  0  0  0
 35 75  1  0  0  0  0
 35 76  1  0  0  0  0
 35 77  1  0  0  0  0
 36 78  1  0  0  0  0
 36 79  1  0  0  0  0
 36 80  1  0  0  0  0
 37 81  1  0  0  0  0
 37 82  1  0  0  0  0
 37 83  1  0  0  0  0
M  END
> <PUBCHEM_COMPOUND_CID>
45361375

> <PUBCHEM_CONFORMER_RMSD>
1.2

> <PUBCHEM_CONFORMER_DIVERSEORDER>
1
59
48
13
30
63
58
43
36
28
47
35
31
8
50
20
51
54
7
45
62
34
23
42
53
33
49
64
5
52
24
10
61
4
41
18
57
27
38
44
12
32
3
19
17
9
56
55
22
16
29
21
25
15
2
26
37
40
14
39
11
46
60
6

> <PUBCHEM_MMFF94_PARTIAL_CHARGES>
32
1 -0.68
12 0.28
16 0.3
2 -0.57
20 0.06
23 0.57
24 0.54
25 0.09
26 0.3
27 0.3
28 0.28
29 0.28
3 -0.57
30 -0.15
31 -0.15
32 -0.15
33 -0.15
34 0.08
35 0.28
36 0.28
37 0.28
4 -0.56
5 -0.56
58 0.37
59 0.4
6 -0.36
7 -0.73
71 0.15
72 0.15
73 0.15
74 0.15
8 -0.66

> <PUBCHEM_EFFECTIVE_ROTOR_COUNT>
14.6

> <PUBCHEM_PHARMACOPHORE_FEATURES>
12
1 1 acceptor
1 1 donor
1 2 acceptor
1 22 hydrophobe
1 3 acceptor
1 4 acceptor
1 5 acceptor
1 6 acceptor
1 7 donor
6 25 30 31 32 33 34 rings
6 9 10 11 15 16 18 rings
6 9 10 12 13 14 17 rings

> <PUBCHEM_HEAVY_ATOM_COUNT>
37

> <PUBCHEM_ATOM_DEF_STEREO_COUNT>
6

> <PUBCHEM_ATOM_UDEF_STEREO_COUNT>
1

> <PUBCHEM_BOND_DEF_STEREO_COUNT>
0

> <PUBCHEM_BOND_UDEF_STEREO_COUNT>
0

> <PUBCHEM_ISOTOPIC_ATOM_COUNT>
0

> <PUBCHEM_COMPONENT_COUNT>
1

> <PUBCHEM_CACTVS_TAUTO_COUNT>
2

> <PUBCHEM_CONFORMER_ID>
02B428DF00000001

> <PUBCHEM_MMFF94_ENERGY>
121.5207

> <PUBCHEM_FEATURE_SELFOVERLAP>
60.915

> <PUBCHEM_SHAPE_FINGERPRINT>
10 15 18333734645362453452
10006869 2 18413105057235592972
10533779 1 17915735578123243840
11719270 70 18261397715010082379
12522641 24 18260543408193055290
12838862 33 18412255130394293543
13008946 113 18044662129737001060
13782708 43 13768198454326005506
13811026 1 18335141938953111375
15684393 108 8935000373469678850
15840311 113 18408321099196473108
16758388 162 18334848390786129706
19301679 30 12035713306713791367
20105231 36 8646768898276227081
20812841 46 18259982639508182354
21033648 29 18186802526024076087
21150785 3 15554446284636482007
21403212 168 18410009927160251747
21585482 111 18196372739905979832
21792934 111 18260261919540001707
21859007 373 18187639198143464333
4403749 210 18267870665360792275
5470011 282 10663821879497100371
6081469 158 16515687711070377863

> <PUBCHEM_SHAPE_MULTIPOLES>
716.26
28.87
3.74
1.64
56.78
3.56
0.4
13.85
-6.55
-10.29
-1.4
-1.86
-0.51
0.97

> <PUBCHEM_SHAPE_SELFOVERLAP>
1470.614

> <PUBCHEM_SHAPE_VOLUME>
409.5

> <PUBCHEM_COORDINATE_TYPE>
2
5
10

$$$$
