45360991
  -OEChem-12032416183D

 49 51  0     1  0  0  0  0  0999 V2000
   -4.9772   -1.8281    1.3388 O   0  0  0  0  0  0  0  0  0  0  0  0
    1.9666   -0.8975    1.3226 O   0  0  0  0  0  0  0  0  0  0  0  0
   -2.6271    1.0129    0.0664 N   0  0  1  0  0  0  0  0  0  0  0  0
   -6.1924    0.2123    0.0817 N   0  0  0  0  0  0  0  0  0  0  0  0
   -3.1369   -1.8355   -0.0221 N   0  0  0  0  0  0  0  0  0  0  0  0
    2.9896   -1.3312   -0.7157 N   0  0  0  0  0  0  0  0  0  0  0  0
    6.2406    1.1559    1.3628 N   0  0  0  0  0  0  0  0  0  0  0  0
   -4.0003    1.0939   -0.4774 C   0  0  1  0  0  0  0  0  0  0  0  0
   -4.8802   -0.1847   -0.4492 C   0  0  1  0  0  0  0  0  0  0  0  0
   -4.8988    2.1140    0.2457 C   0  0  0  0  0  0  0  0  0  0  0  0
   -1.7227    0.0911   -0.6753 C   0  0  2  0  0  0  0  0  0  0  0  0
   -6.2994    1.6529   -0.0908 C   0  0  0  0  0  0  0  0  0  0  0  0
   -2.3597   -1.2476   -1.0951 C   0  0  0  0  0  0  0  0  0  0  0  0
   -4.3586   -1.3415    0.3933 C   0  0  0  0  0  0  0  0  0  0  0  0
   -0.4745   -0.2323    0.1720 C   0  0  0  0  0  0  0  0  0  0  0  0
   -2.0223    2.3528    0.1599 C   0  0  0  0  0  0  0  0  0  0  0  0
    0.6874   -0.6369   -0.7164 C   0  0  0  0  0  0  0  0  0  0  0  0
    1.9276   -0.9614    0.0967 C   0  0  0  0  0  0  0  0  0  0  0  0
    4.2823   -1.6872   -0.1802 C   0  0  0  0  0  0  0  0  0  0  0  0
    5.1859   -0.4950   -0.0541 C   0  0  0  0  0  0  0  0  0  0  0  0
    5.7931    0.0659   -1.1721 C   0  0  0  0  0  0  0  0  0  0  0  0
    5.4398    0.0821    1.1799 C   0  0  0  0  0  0  0  0  0  0  0  0
    6.6238    1.1711   -1.0242 C   0  0  0  0  0  0  0  0  0  0  0  0
    6.8133    1.6738    0.2530 C   0  0  0  0  0  0  0  0  0  0  0  0
   -3.9374    1.4203   -1.5271 H   0  0  0  0  0  0  0  0  0  0  0  0
   -5.0349   -0.5565   -1.4695 H   0  0  0  0  0  0  0  0  0  0  0  0
   -4.7430    2.0768    1.3323 H   0  0  0  0  0  0  0  0  0  0  0  0
   -4.7244    3.1400   -0.0944 H   0  0  0  0  0  0  0  0  0  0  0  0
   -1.4056    0.5936   -1.6001 H   0  0  0  0  0  0  0  0  0  0  0  0
   -6.5646    1.8963   -1.1258 H   0  0  0  0  0  0  0  0  0  0  0  0
   -7.0522    2.0894    0.5720 H   0  0  0  0  0  0  0  0  0  0  0  0
   -6.2235    0.0126    1.0827 H   0  0  0  0  0  0  0  0  0  0  0  0
   -1.6188   -1.9943   -1.3930 H   0  0  0  0  0  0  0  0  0  0  0  0
   -3.0061   -1.1038   -1.9672 H   0  0  0  0  0  0  0  0  0  0  0  0
   -0.1407    0.6120    0.7804 H   0  0  0  0  0  0  0  0  0  0  0  0
   -0.6958   -1.0265    0.8973 H   0  0  0  0  0  0  0  0  0  0  0  0
   -2.7416   -2.6223    0.4836 H   0  0  0  0  0  0  0  0  0  0  0  0
   -1.9963    2.8478   -0.8181 H   0  0  0  0  0  0  0  0  0  0  0  0
   -2.5804    2.9903    0.8533 H   0  0  0  0  0  0  0  0  0  0  0  0
   -1.0045    2.3528    0.5545 H   0  0  0  0  0  0  0  0  0  0  0  0
    0.4514   -1.5193   -1.3192 H   0  0  0  0  0  0  0  0  0  0  0  0
    0.9405    0.1808   -1.4024 H   0  0  0  0  0  0  0  0  0  0  0  0
    2.8700   -1.3384   -1.7246 H   0  0  0  0  0  0  0  0  0  0  0  0
    4.1508   -2.1802    0.7901 H   0  0  0  0  0  0  0  0  0  0  0  0
    4.7300   -2.4243   -0.8565 H   0  0  0  0  0  0  0  0  0  0  0  0
    5.6257   -0.3496   -2.1619 H   0  0  0  0  0  0  0  0  0  0  0  0
    4.9944   -0.3084    2.0896 H   0  0  0  0  0  0  0  0  0  0  0  0
    7.1076    1.6249   -1.8816 H   0  0  0  0  0  0  0  0  0  0  0  0
    7.4518    2.5347    0.4219 H   0  0  0  0  0  0  0  0  0  0  0  0
  1 14  2  0  0  0  0
  2 18  2  0  0  0  0
  3  8  1  0  0  0  0
  3 11  1  0  0  0  0
  3 16  1  0  0  0  0
  4  9  1  0  0  0  0
  4 12  1  0  0  0  0
  4 32  1  0  0  0  0
  5 13  1  0  0  0  0
  5 14  1  0  0  0  0
  5 37  1  0  0  0  0
  6 18  1  0  0  0  0
  6 19  1  0  0  0  0
  6 43  1  0  0  0  0
  7 22  1  0  0  0  0
  7 24  2  0  0  0  0
  8  9  1  0  0  0  0
  8 10  1  0  0  0  0
  8 25  1  0  0  0  0
  9 14  1  0  0  0  0
  9 26  1  0  0  0  0
 10 12  1  0  0  0  0
 10 27  1  0  0  0  0
 10 28  1  0  0  0  0
 11 13  1  0  0  0  0
 11 15  1  0  0  0  0
 11 29  1  0  0  0  0
 12 30  1  0  0  0  0
 12 31  1  0  0  0  0
 13 33  1  0  0  0  0
 13 34  1  0  0  0  0
 15 17  1  0  0  0  0
 15 35  1  0  0  0  0
 15 36  1  0  0  0  0
 16 38  1  0  0  0  0
 16 39  1  0  0  0  0
 16 40  1  0  0  0  0
 17 18  1  0  0  0  0
 17 41  1  0  0  0  0
 17 42  1  0  0  0  0
 19 20  1  0  0  0  0
 19 44  1  0  0  0  0
 19 45  1  0  0  0  0
 20 21  1  0  0  0  0
 20 22  2  0  0  0  0
 21 23  2  0  0  0  0
 21 46  1  0  0  0  0
 22 47  1  0  0  0  0
 23 24  1  0  0  0  0
 23 48  1  0  0  0  0
 24 49  1  0  0  0  0
M  END
> <PUBCHEM_COMPOUND_CID>
45360991

> <PUBCHEM_CONFORMER_RMSD>
1

> <PUBCHEM_CONFORMER_DIVERSEORDER>
1
58
138
182
244
134
164
73
5
230
95
7
140
78
186
192
215
165
31
146
151
136
71
217
9
241
11
198
156
204
219
69
96
60
77
247
162
212
214
128
25
150
153
159
160
171
74
213
97
80
36
102
72
119
18
173
210
29
53
180
142
32
8
157
92
61
6
125
147
239
2
110
115
24
75
232
41
37
141
17
79
194
67
200
233
57
113
161
184
3
90
98
155
121
211
54
245
105
45
40
225
181
83
203
221
46
86
236
107
111
235
26
114
103
234
49
19
22
84
202
38
10
227
81
179
137
88
91
126
93
100
185
109
66
248
242
148
154
43
108
149
168
59
193
4
28
243
183
238
68
133
209
188
178
87
34
196
23
76
44
216
51
14
124
15
20
226
207
175
187
50
135
169
52
158
249
123
172
82
206
39
64
231
117
21
47
167
229
70
127
177
101
63
16
139
152
201
228
208
145
12
191
199
163
42
237
197
222
246
120
189
240
195
89
30
176
112
144
190
13
143
99
56
48
220
130
33
104
65
223
55
122
205
118
129
218
106
116
85
166
94
224
131
132
170
35
27
174
62

> <PUBCHEM_MMFF94_PARTIAL_CHARGES>
29
1 -0.57
11 0.27
12 0.27
13 0.3
14 0.57
16 0.27
17 0.06
18 0.57
19 0.44
2 -0.57
20 -0.14
21 -0.15
22 0.16
23 -0.15
24 0.16
3 -0.81
32 0.36
37 0.37
4 -0.9
43 0.37
46 0.15
47 0.15
48 0.15
49 0.15
5 -0.73
6 -0.73
7 -0.62
8 0.27
9 0.33

> <PUBCHEM_EFFECTIVE_ROTOR_COUNT>
7.4

> <PUBCHEM_PHARMACOPHORE_FEATURES>
11
1 1 acceptor
1 2 acceptor
1 3 cation
1 4 cation
1 4 donor
1 5 donor
1 6 donor
1 7 acceptor
5 4 8 9 10 12 rings
6 7 20 21 22 23 24 rings
7 3 5 8 9 11 13 14 rings

> <PUBCHEM_HEAVY_ATOM_COUNT>
24

> <PUBCHEM_ATOM_DEF_STEREO_COUNT>
3

> <PUBCHEM_ATOM_UDEF_STEREO_COUNT>
0

> <PUBCHEM_BOND_DEF_STEREO_COUNT>
0

> <PUBCHEM_BOND_UDEF_STEREO_COUNT>
0

> <PUBCHEM_ISOTOPIC_ATOM_COUNT>
0

> <PUBCHEM_COMPONENT_COUNT>
1

> <PUBCHEM_CACTVS_TAUTO_COUNT>
6

> <PUBCHEM_CONFORMER_ID>
02B4275F00000001

> <PUBCHEM_MMFF94_ENERGY>
58.2322

> <PUBCHEM_FEATURE_SELFOVERLAP>
55.858

> <PUBCHEM_SHAPE_FINGERPRINT>
10 15 18260550021593273473
10066227 112 18130786750289375473
11315181 36 17967816076696730711
11578080 2 13685197279935248081
11991303 11 15985092046278415829
12166972 35 10735869590789672610
12236239 1 18040998414625457055
12596602 18 17894910733054634474
12616971 3 16081096977941899031
12730499 353 18202289109063918022
13533116 47 16515959269252263426
13631057 29 17823139080970992907
13668630 136 8358265852104567760
13914758 101 10807938154806382107
14251732 16 18409168830924427358
14251764 18 18341895186979139407
14461889 52 18333453166386539018
14848160 23 11602819103727900886
14933364 13 18413392034054769398
17844677 252 18271814462997290814
17857418 61 8790882986919154164
19377110 9 17240478096371470968
20281389 69 18336825299306925476
20511986 3 17531517703299635187
21150785 3 17132108057195199701
21641784 216 16845586292238549272
23081809 10 18410002235158745830
23198884 109 13902187093133897775
23559900 14 18410568505390808297
23569943 247 12678642805750858604
29717793 49 11599999964599260802
300161 21 17967527935624866967
34797466 226 17846786208824364988
3663271 9 17894908542642490514
4073 2 18187370938807302154
4325135 7 18407479960005909212
44249763 50 17631434804861838262
445580 37 18341343231699215764
465052 167 11458421320153061506
5104073 3 18335137540790588786
531348 171 10951781758972499975
67856867 119 18041850630478779429
960060 61 13110962059546313482

> <PUBCHEM_SHAPE_MULTIPOLES>
457.27
20.24
2.15
1.09
15.44
0.48
0.11
7.48
1
-1.45
0.19
1
-0.11
0.56

> <PUBCHEM_SHAPE_SELFOVERLAP>
952.711

> <PUBCHEM_SHAPE_VOLUME>
257.3

> <PUBCHEM_COORDINATE_TYPE>
2
5
10

$$$$
