7165013
  -OEChem-12032416353D

 75 78  0     1  0  0  0  0  0999 V2000
    0.3521   -4.5992   -0.6478 O   0  0  0  0  0  0  0  0  0  0  0  0
   -0.5669   -0.7556   -1.9123 O   0  0  0  0  0  0  0  0  0  0  0  0
   -3.7732    0.8767    1.9068 O   0  0  0  0  0  0  0  0  0  0  0  0
   -2.5078    2.5624   -0.8694 O   0  0  0  0  0  0  0  0  0  0  0  0
   -0.5865   -2.5705   -0.0096 N   0  0  0  0  0  0  0  0  0  0  0  0
   -2.8879   -0.9751    0.8203 N   0  0  0  0  0  0  0  0  0  0  0  0
   -0.2573    1.0380   -0.4610 N   0  0  0  0  0  0  0  0  0  0  0  0
   -5.1505   -0.3679    0.5472 N   0  0  0  0  0  0  0  0  0  0  0  0
    4.2431    2.5071   -0.8934 N   0  0  0  0  0  0  0  0  0  0  0  0
   -1.8226    2.9313   -3.0305 N   0  0  0  0  0  0  0  0  0  0  0  0
    1.8326   -2.7666   -0.4637 C   0  0  0  0  0  0  0  0  0  0  0  0
    2.5145   -2.8329    0.9047 C   0  0  0  0  0  0  0  0  0  0  0  0
    2.6713   -3.4573   -1.5414 C   0  0  0  0  0  0  0  0  0  0  0  0
   -0.4369   -1.1790    0.4383 C   0  0  2  0  0  0  0  0  0  0  0  0
    3.9379   -2.2841    0.8527 C   0  0  0  0  0  0  0  0  0  0  0  0
    4.0943   -2.9073   -1.5875 C   0  0  0  0  0  0  0  0  0  0  0  0
    4.7700   -2.9782   -0.2214 C   0  0  0  0  0  0  0  0  0  0  0  0
    0.4746   -3.3989   -0.3892 C   0  0  0  0  0  0  0  0  0  0  0  0
   -1.9259   -3.1546    0.0893 C   0  0  0  0  0  0  0  0  0  0  0  0
   -1.5554   -0.7583    1.3933 C   0  0  0  0  0  0  0  0  0  0  0  0
   -3.0393   -2.1281   -0.0766 C   0  0  0  0  0  0  0  0  0  0  0  0
   -0.4378   -0.2969   -0.7803 C   0  0  0  0  0  0  0  0  0  0  0  0
   -3.9278   -0.0859    1.1492 C   0  0  0  0  0  0  0  0  0  0  0  0
   -0.1972    2.0870   -1.4531 C   0  0  2  0  0  0  0  0  0  0  0  0
    0.6502    3.2782   -0.9885 C   0  0  0  0  0  0  0  0  0  0  0  0
   -6.3258    0.4446    0.7652 C   0  0  0  0  0  0  0  0  0  0  0  0
    2.0702    2.9036   -0.6732 C   0  0  0  0  0  0  0  0  0  0  0  0
   -1.6282    2.5266   -1.7266 C   0  0  0  0  0  0  0  0  0  0  0  0
    2.5752    2.4801    0.5880 C   0  0  0  0  0  0  0  0  0  0  0  0
    3.1192    2.9103   -1.5634 C   0  0  0  0  0  0  0  0  0  0  0  0
   -6.3786    1.5891   -0.2390 C   0  0  0  0  0  0  0  0  0  0  0  0
   -7.5829   -0.4124    0.6919 C   0  0  0  0  0  0  0  0  0  0  0  0
    3.9405    2.2379    0.4223 C   0  0  0  0  0  0  0  0  0  0  0  0
    1.9999    2.2790    1.8584 C   0  0  0  0  0  0  0  0  0  0  0  0
    4.7627    1.8028    1.4679 C   0  0  0  0  0  0  0  0  0  0  0  0
    2.8100    1.8439    2.9136 C   0  0  0  0  0  0  0  0  0  0  0  0
    4.1700    1.6102    2.7190 C   0  0  0  0  0  0  0  0  0  0  0  0
    1.7538   -1.7196   -0.7699 H   0  0  0  0  0  0  0  0  0  0  0  0
    2.5519   -3.8781    1.2414 H   0  0  0  0  0  0  0  0  0  0  0  0
    1.9525   -2.3005    1.6771 H   0  0  0  0  0  0  0  0  0  0  0  0
    2.1983   -3.3333   -2.5234 H   0  0  0  0  0  0  0  0  0  0  0  0
    2.7255   -4.5383   -1.3571 H   0  0  0  0  0  0  0  0  0  0  0  0
    0.5165   -1.0361    0.9473 H   0  0  0  0  0  0  0  0  0  0  0  0
    3.9038   -1.2073    0.6489 H   0  0  0  0  0  0  0  0  0  0  0  0
    4.4184   -2.4102    1.8294 H   0  0  0  0  0  0  0  0  0  0  0  0
    4.6839   -3.4699   -2.3202 H   0  0  0  0  0  0  0  0  0  0  0  0
    4.0712   -1.8650   -1.9291 H   0  0  0  0  0  0  0  0  0  0  0  0
    5.7615   -2.5147   -0.2760 H   0  0  0  0  0  0  0  0  0  0  0  0
    4.9223   -4.0284    0.0566 H   0  0  0  0  0  0  0  0  0  0  0  0
   -2.0375   -3.9539   -0.6515 H   0  0  0  0  0  0  0  0  0  0  0  0
   -1.9885   -3.6216    1.0802 H   0  0  0  0  0  0  0  0  0  0  0  0
   -1.4559    0.2760    1.7349 H   0  0  0  0  0  0  0  0  0  0  0  0
   -1.5129   -1.3803    2.2971 H   0  0  0  0  0  0  0  0  0  0  0  0
   -3.9977   -2.6206    0.1161 H   0  0  0  0  0  0  0  0  0  0  0  0
   -3.0607   -1.7385   -1.1006 H   0  0  0  0  0  0  0  0  0  0  0  0
   -0.2005    1.3147    0.5122 H   0  0  0  0  0  0  0  0  0  0  0  0
    0.2300    1.6591   -2.3690 H   0  0  0  0  0  0  0  0  0  0  0  0
    0.1945    3.7416   -0.1032 H   0  0  0  0  0  0  0  0  0  0  0  0
    0.6468    4.0559   -1.7637 H   0  0  0  0  0  0  0  0  0  0  0  0
   -5.2070   -1.0685   -0.1822 H   0  0  0  0  0  0  0  0  0  0  0  0
   -6.2646    0.8749    1.7720 H   0  0  0  0  0  0  0  0  0  0  0  0
    3.1680    3.1641   -2.6132 H   0  0  0  0  0  0  0  0  0  0  0  0
   -6.4203    1.2128   -1.2674 H   0  0  0  0  0  0  0  0  0  0  0  0
   -5.4894    2.2236   -0.1577 H   0  0  0  0  0  0  0  0  0  0  0  0
   -7.2583    2.2187   -0.0696 H   0  0  0  0  0  0  0  0  0  0  0  0
   -7.6938   -0.8734   -0.2959 H   0  0  0  0  0  0  0  0  0  0  0  0
   -7.5447   -1.2210    1.4301 H   0  0  0  0  0  0  0  0  0  0  0  0
   -8.4777    0.1864    0.8912 H   0  0  0  0  0  0  0  0  0  0  0  0
    5.1621    2.4191   -1.3046 H   0  0  0  0  0  0  0  0  0  0  0  0
    0.9450    2.4664    2.0353 H   0  0  0  0  0  0  0  0  0  0  0  0
   -1.0802    2.9176   -3.7224 H   0  0  0  0  0  0  0  0  0  0  0  0
   -2.7294    3.2622   -3.3429 H   0  0  0  0  0  0  0  0  0  0  0  0
    5.8212    1.6194    1.3172 H   0  0  0  0  0  0  0  0  0  0  0  0
    2.3721    1.6889    3.8961 H   0  0  0  0  0  0  0  0  0  0  0  0
    4.7805    1.2721    3.5524 H   0  0  0  0  0  0  0  0  0  0  0  0
  1 18  2  0  0  0  0
  2 22  2  0  0  0  0
  3 23  2  0  0  0  0
  4 28  2  0  0  0  0
  5 14  1  0  0  0  0
  5 18  1  0  0  0  0
  5 19  1  0  0  0  0
  6 20  1  0  0  0  0
  6 21  1  0  0  0  0
  6 23  1  0  0  0  0
  7 22  1  0  0  0  0
  7 24  1  0  0  0  0
  7 56  1  0  0  0  0
  8 23  1  0  0  0  0
  8 26  1  0  0  0  0
  8 60  1  0  0  0  0
  9 30  1  0  0  0  0
  9 33  1  0  0  0  0
  9 69  1  0  0  0  0
 10 28  1  0  0  0  0
 10 71  1  0  0  0  0
 10 72  1  0  0  0  0
 11 12  1  0  0  0  0
 11 13  1  0  0  0  0
 11 18  1  0  0  0  0
 11 38  1  0  0  0  0
 12 15  1  0  0  0  0
 12 39  1  0  0  0  0
 12 40  1  0  0  0  0
 13 16  1  0  0  0  0
 13 41  1  0  0  0  0
 13 42  1  0  0  0  0
 14 20  1  0  0  0  0
 14 22  1  0  0  0  0
 14 43  1  0  0  0  0
 15 17  1  0  0  0  0
 15 44  1  0  0  0  0
 15 45  1  0  0  0  0
 16 17  1  0  0  0  0
 16 46  1  0  0  0  0
 16 47  1  0  0  0  0
 17 48  1  0  0  0  0
 17 49  1  0  0  0  0
 19 21  1  0  0  0  0
 19 50  1  0  0  0  0
 19 51  1  0  0  0  0
 20 52  1  0  0  0  0
 20 53  1  0  0  0  0
 21 54  1  0  0  0  0
 21 55  1  0  0  0  0
 24 25  1  0  0  0  0
 24 28  1  0  0  0  0
 24 57  1  0  0  0  0
 25 27  1  0  0  0  0
 25 58  1  0  0  0  0
 25 59  1  0  0  0  0
 26 31  1  0  0  0  0
 26 32  1  0  0  0  0
 26 61  1  0  0  0  0
 27 29  1  0  0  0  0
 27 30  2  0  0  0  0
 29 33  1  0  0  0  0
 29 34  2  0  0  0  0
 30 62  1  0  0  0  0
 31 63  1  0  0  0  0
 31 64  1  0  0  0  0
 31 65  1  0  0  0  0
 32 66  1  0  0  0  0
 32 67  1  0  0  0  0
 32 68  1  0  0  0  0
 33 35  2  0  0  0  0
 34 36  1  0  0  0  0
 34 70  1  0  0  0  0
 35 37  1  0  0  0  0
 35 73  1  0  0  0  0
 36 37  2  0  0  0  0
 36 74  1  0  0  0  0
 37 75  1  0  0  0  0
M  END
> <PUBCHEM_COMPOUND_CID>
7165013

> <PUBCHEM_CONFORMER_RMSD>
1.2

> <PUBCHEM_CONFORMER_DIVERSEORDER>
1
102
6
71
120
65
80
3
132
37
103
73
109
98
77
62
123
140
95
96
68
112
36
18
64
74
88
127
40
128
8
47
33
72
48
130
139
131
121
34
129
105
25
114
135
115
94
22
49
90
56
118
39
50
69
99
119
27
19
134
110
76
122
86
32
100
136
41
20
7
57
38
17
116
84
108
15
5
92
107
46
81
13
125
83
117
42
54
87
21
45
138
61
67
60
78
24
51
70
82
53
9
101
124
126
44
14
63
104
43
58
31
55
111
52
23
59
106
2
10
113
79
11
16
89
91
28
93
85
97
35
75
30
66
12
29
137
133
4
26

> <PUBCHEM_MMFF94_PARTIAL_CHARGES>
39
1 -0.57
10 -0.8
11 0.06
14 0.36
18 0.57
19 0.3
2 -0.57
20 0.3
21 0.3
22 0.57
23 0.69
24 0.36
25 0.18
26 0.3
27 -0.18
28 0.57
3 -0.57
30 -0.3
33 -0.15
34 -0.15
35 -0.15
36 -0.15
37 -0.15
4 -0.57
5 -0.66
56 0.37
6 -0.66
60 0.37
62 0.15
69 0.27
7 -0.73
70 0.15
71 0.37
72 0.37
73 0.15
74 0.15
75 0.15
8 -0.73
9 0.03

> <PUBCHEM_EFFECTIVE_ROTOR_COUNT>
13.4

> <PUBCHEM_PHARMACOPHORE_FEATURES>
14
1 1 acceptor
1 10 donor
1 2 acceptor
1 3 acceptor
1 4 acceptor
1 7 donor
1 8 donor
1 9 cation
1 9 donor
3 26 31 32 hydrophobe
5 9 27 29 30 33 rings
6 11 12 13 15 16 17 rings
6 29 33 34 35 36 37 rings
6 5 6 14 19 20 21 rings

> <PUBCHEM_HEAVY_ATOM_COUNT>
37

> <PUBCHEM_ATOM_DEF_STEREO_COUNT>
2

> <PUBCHEM_ATOM_UDEF_STEREO_COUNT>
0

> <PUBCHEM_BOND_DEF_STEREO_COUNT>
0

> <PUBCHEM_BOND_UDEF_STEREO_COUNT>
0

> <PUBCHEM_ISOTOPIC_ATOM_COUNT>
0

> <PUBCHEM_COMPONENT_COUNT>
1

> <PUBCHEM_CACTVS_TAUTO_COUNT>
8

> <PUBCHEM_CONFORMER_ID>
006D545500000001

> <PUBCHEM_MMFF94_ENERGY>
70.5211

> <PUBCHEM_FEATURE_SELFOVERLAP>
71.139

> <PUBCHEM_SHAPE_FINGERPRINT>
12156800 1 14349492767667882712
12422481 6 18259976089894091321
14725015 67 18042965380792861443
15064986 96 18188782767386909536
15264996 44 18411992338103432286
15420108 30 18269833267308446567
15775530 1 17970336019687535957
17980427 23 17487348032405716035
20764821 26 18334846208958463492
21033648 29 18056766661440709913
23559900 14 18411987948895047787
3027735 51 18053070064402913740
3493558 16 17988651731236973731
513532 50 17846227673590856564
5171179 24 18266178323253740613
5265222 85 17757574197125712900

> <PUBCHEM_SHAPE_MULTIPOLES>
708.08
11.93
5.94
2.26
19.56
3.06
0.27
-1.91
4.54
-6.27
-2.31
-1.43
-1.88
2.42

> <PUBCHEM_SHAPE_SELFOVERLAP>
1493.556

> <PUBCHEM_SHAPE_VOLUME>
393.7

> <PUBCHEM_COORDINATE_TYPE>
2
5
10

$$$$
