26745439
  -OEChem-12032416183D

 45 48  0     1  0  0  0  0  0999 V2000
    5.6216   -0.4880    2.1888 Cl  0  0  0  0  0  0  0  0  0  0  0  0
    0.7809   -3.2602    0.4313 S   0  0  0  0  0  0  0  0  0  0  0  0
   -0.5979    2.4749   -0.0536 O   0  0  0  0  0  0  0  0  0  0  0  0
   -1.5224   -0.4934   -0.7919 N   0  0  2  0  0  0  0  0  0  0  0  0
   -3.6135    0.4964    2.1332 N   0  0  0  0  0  0  0  0  0  0  0  0
   -4.5058    1.9814    0.7190 N   0  0  0  0  0  0  0  0  0  0  0  0
    0.6568    1.5683   -1.7924 N   0  0  0  0  0  0  0  0  0  0  0  0
   -1.6007    0.8270   -1.4663 C   0  0  1  0  0  0  0  0  0  0  0  0
   -2.9675    1.5399   -1.2529 C   0  0  0  0  0  0  0  0  0  0  0  0
   -1.7371   -0.4570    0.6733 C   0  0  0  0  0  0  0  0  0  0  0  0
   -2.8971    0.4095    0.9787 C   0  0  0  0  0  0  0  0  0  0  0  0
   -3.4589    1.3312    0.1300 C   0  0  0  0  0  0  0  0  0  0  0  0
   -0.3209   -1.2482   -1.1353 C   0  0  0  0  0  0  0  0  0  0  0  0
   -0.4752    1.7121   -1.0083 C   0  0  0  0  0  0  0  0  0  0  0  0
   -0.3972   -2.6714   -0.6630 C   0  0  0  0  0  0  0  0  0  0  0  0
   -4.5730    1.4569    1.9272 C   0  0  0  0  0  0  0  0  0  0  0  0
    1.8700    2.3229   -1.5752 C   0  0  0  0  0  0  0  0  0  0  0  0
   -1.3235   -3.6359   -0.9936 C   0  0  0  0  0  0  0  0  0  0  0  0
    2.8076    1.6212   -0.6357 C   0  0  0  0  0  0  0  0  0  0  0  0
   -1.0626   -4.8746   -0.3397 C   0  0  0  0  0  0  0  0  0  0  0  0
    0.0531   -4.8097    0.4655 C   0  0  0  0  0  0  0  0  0  0  0  0
    2.7255    1.8576    0.7366 C   0  0  0  0  0  0  0  0  0  0  0  0
    3.7604    0.7331   -1.1347 C   0  0  0  0  0  0  0  0  0  0  0  0
    3.5965    1.2061    1.6098 C   0  0  0  0  0  0  0  0  0  0  0  0
    4.6314    0.0816   -0.2616 C   0  0  0  0  0  0  0  0  0  0  0  0
    4.5494    0.3181    1.1107 C   0  0  0  0  0  0  0  0  0  0  0  0
   -1.5093    0.6781   -2.5510 H   0  0  0  0  0  0  0  0  0  0  0  0
   -2.8940    2.6114   -1.4708 H   0  0  0  0  0  0  0  0  0  0  0  0
   -3.7053    1.1109   -1.9423 H   0  0  0  0  0  0  0  0  0  0  0  0
   -0.8510   -0.0737    1.1945 H   0  0  0  0  0  0  0  0  0  0  0  0
   -1.9531   -1.4584    1.0616 H   0  0  0  0  0  0  0  0  0  0  0  0
    0.5786   -0.7739   -0.7261 H   0  0  0  0  0  0  0  0  0  0  0  0
   -0.2005   -1.2814   -2.2261 H   0  0  0  0  0  0  0  0  0  0  0  0
   -3.4699   -0.0373    2.9804 H   0  0  0  0  0  0  0  0  0  0  0  0
   -5.2845    1.7236    2.6957 H   0  0  0  0  0  0  0  0  0  0  0  0
    0.6526    0.9094   -2.5649 H   0  0  0  0  0  0  0  0  0  0  0  0
    1.6157    3.3170   -1.1885 H   0  0  0  0  0  0  0  0  0  0  0  0
    2.3443    2.4730   -2.5517 H   0  0  0  0  0  0  0  0  0  0  0  0
   -2.1499   -3.4665   -1.6722 H   0  0  0  0  0  0  0  0  0  0  0  0
   -1.6628   -5.7678   -0.4543 H   0  0  0  0  0  0  0  0  0  0  0  0
    0.4756   -5.5981    1.0724 H   0  0  0  0  0  0  0  0  0  0  0  0
    1.9896    2.5480    1.1392 H   0  0  0  0  0  0  0  0  0  0  0  0
    3.8323    0.5388   -2.2015 H   0  0  0  0  0  0  0  0  0  0  0  0
    3.5209    1.3998    2.6767 H   0  0  0  0  0  0  0  0  0  0  0  0
    5.3680   -0.6087   -0.6644 H   0  0  0  0  0  0  0  0  0  0  0  0
  1 26  1  0  0  0  0
  2 15  1  0  0  0  0
  2 21  1  0  0  0  0
  3 14  2  0  0  0  0
  4  8  1  0  0  0  0
  4 10  1  0  0  0  0
  4 13  1  0  0  0  0
  5 11  1  0  0  0  0
  5 16  1  0  0  0  0
  5 34  1  0  0  0  0
  6 12  1  0  0  0  0
  6 16  2  0  0  0  0
  7 14  1  0  0  0  0
  7 17  1  0  0  0  0
  7 36  1  0  0  0  0
  8  9  1  0  0  0  0
  8 14  1  0  0  0  0
  8 27  1  0  0  0  0
  9 12  1  0  0  0  0
  9 28  1  0  0  0  0
  9 29  1  0  0  0  0
 10 11  1  0  0  0  0
 10 30  1  0  0  0  0
 10 31  1  0  0  0  0
 11 12  2  0  0  0  0
 13 15  1  0  0  0  0
 13 32  1  0  0  0  0
 13 33  1  0  0  0  0
 15 18  2  0  0  0  0
 16 35  1  0  0  0  0
 17 19  1  0  0  0  0
 17 37  1  0  0  0  0
 17 38  1  0  0  0  0
 18 20  1  0  0  0  0
 18 39  1  0  0  0  0
 19 22  2  0  0  0  0
 19 23  1  0  0  0  0
 20 21  2  0  0  0  0
 20 40  1  0  0  0  0
 21 41  1  0  0  0  0
 22 24  1  0  0  0  0
 22 42  1  0  0  0  0
 23 25  2  0  0  0  0
 23 43  1  0  0  0  0
 24 26  2  0  0  0  0
 24 44  1  0  0  0  0
 25 26  1  0  0  0  0
 25 45  1  0  0  0  0
M  END
> <PUBCHEM_COMPOUND_CID>
26745439

> <PUBCHEM_CONFORMER_RMSD>
0.8

> <PUBCHEM_CONFORMER_DIVERSEORDER>
1
159
84
180
56
192
191
105
33
60
175
125
200
45
74
164
149
190
119
177
210
59
73
64
196
168
101
166
96
4
152
194
189
108
137
144
138
53
10
182
173
89
201
100
150
203
207
65
92
170
142
151
195
204
163
120
70
129
123
51
3
103
39
63
106
36
72
183
12
115
111
130
52
118
135
197
116
122
193
99
178
38
93
75
34
143
131
213
29
82
211
41
26
55
57
102
68
86
47
209
22
19
76
66
158
40
94
32
133
78
20
136
140
208
28
88
114
113
46
90
117
179
77
104
187
181
186
30
62
199
87
167
49
126
169
161
184
44
139
156
48
145
121
18
15
2
35
54
67
185
176
69
13
202
112
31
214
43
146
212
110
154
109
171
215
50
24
97
81
23
58
9
83
79
165
206
162
91
198
80
5
25
132
157
98
17
205
14
71
172
7
128
6
141
42
16
95
160
127
153
11
134
155
37
27
107
188
21
8
85
148
124
147
174
61

> <PUBCHEM_MMFF94_PARTIAL_CHARGES>
36
1 -0.18
10 0.45
11 -0.33
12 0.05
13 0.45
14 0.57
15 -0.14
16 0.04
17 0.44
18 -0.15
19 -0.14
2 -0.08
20 -0.15
21 -0.11
22 -0.15
23 -0.15
24 -0.15
25 -0.15
26 0.18
3 -0.57
34 0.27
35 0.15
36 0.37
39 0.15
4 -0.81
40 0.15
41 0.15
42 0.15
43 0.15
44 0.15
45 0.15
5 0.03
6 -0.57
7 -0.73
8 0.33
9 0.18

> <PUBCHEM_EFFECTIVE_ROTOR_COUNT>
6.8

> <PUBCHEM_PHARMACOPHORE_FEATURES>
9
1 3 acceptor
1 4 cation
1 5 donor
1 7 donor
3 5 6 16 cation
5 2 15 18 20 21 rings
5 5 6 11 12 16 rings
6 19 22 23 24 25 26 rings
6 4 8 9 10 11 12 rings

> <PUBCHEM_HEAVY_ATOM_COUNT>
26

> <PUBCHEM_ATOM_DEF_STEREO_COUNT>
1

> <PUBCHEM_ATOM_UDEF_STEREO_COUNT>
0

> <PUBCHEM_BOND_DEF_STEREO_COUNT>
0

> <PUBCHEM_BOND_UDEF_STEREO_COUNT>
0

> <PUBCHEM_ISOTOPIC_ATOM_COUNT>
0

> <PUBCHEM_COMPONENT_COUNT>
1

> <PUBCHEM_CACTVS_TAUTO_COUNT>
4

> <PUBCHEM_CONFORMER_ID>
01981A5F00000001

> <PUBCHEM_MMFF94_ENERGY>
51.1244

> <PUBCHEM_FEATURE_SELFOVERLAP>
45.772

> <PUBCHEM_SHAPE_FINGERPRINT>
10064457 181 18341618143912962208
10764073 3 17241323539393709069
11070050 100 17625309365322205067
11552529 35 18053660562609153248
11763715 3 14057588699392090013
12160290 23 18055358191319020631
12422481 6 18118111473286812928
12549972 3 17273444809578998404
12633257 1 18271512166156571696
12788726 201 17763192731433812655
12839892 36 18264224628883518675
13004483 165 17765996486295897951
14363568 33 17835798600081561338
14739800 52 17414166715951986097
14866123 147 18338803423905347142
15064986 96 18046616811568860419
15403338 16 16301455454804041098
15420108 30 18270684152159152119
15537594 2 17894912941126773008
15842332 3 17899140695994502228
16110190 28 18261107496423592120
16728300 4 17822565032420755971
1813 80 11386373677021868009
20600515 1 17041706386963427011
21033648 29 18342451509150157640
21120745 212 17329736703733767389
22956985 138 18044951064718190899
23419403 2 17680711406993522645
235170 7 12685082696968007264
23559900 14 17536616014337765127
345986 75 17617379927512003539
35225 105 17837528436302359450
465052 167 17386304158963727457
5385378 56 18124886655543029593
58807428 26 18411985732422501223
6679774 75 18041857107901975954
79837 15 18340777021870982467

> <PUBCHEM_SHAPE_MULTIPOLES>
514.99
8.98
5.2
1.95
7.03
9.8
-0.54
-5.85
-6.03
-2.62
0.79
0.13
-0.86
-1.52

> <PUBCHEM_SHAPE_SELFOVERLAP>
1097.056

> <PUBCHEM_SHAPE_VOLUME>
288.8

> <PUBCHEM_COORDINATE_TYPE>
2
5
10

$$$$
