28959709
  -OEChem-12032416143D

 63 65  0     1  0  0  0  0  0999 V2000
   -1.2651    2.4059    0.7434 O   0  0  0  0  0  0  0  0  0  0  0  0
    6.9273    1.2212    1.0887 O   0  0  0  0  0  0  0  0  0  0  0  0
    5.7904    3.0289    0.3010 O   0  0  0  0  0  0  0  0  0  0  0  0
   -6.8592    0.6180    0.8065 O   0  0  0  0  0  0  0  0  0  0  0  0
    0.6433    1.9122   -0.4859 N   0  0  0  0  0  0  0  0  0  0  0  0
    1.4659   -3.0875   -0.2069 N   0  0  0  0  0  0  0  0  0  0  0  0
    2.5886    0.4575   -1.0091 C   0  0  2  0  0  0  0  0  0  0  0  0
    3.4982    1.4708   -0.2686 C   0  0  1  0  0  0  0  0  0  0  0  0
    1.3382    1.1753   -1.5492 C   0  0  0  0  0  0  0  0  0  0  0  0
    2.1824   -0.7525   -0.1587 C   0  0  0  0  0  0  0  0  0  0  0  0
    2.7182    2.2552    0.8001 C   0  0  0  0  0  0  0  0  0  0  0  0
    1.4663    2.9002    0.2113 C   0  0  0  0  0  0  0  0  0  0  0  0
    1.8666   -1.9534   -1.0390 C   0  0  0  0  0  0  0  0  0  0  0  0
    4.7449    0.8273    0.3379 C   0  0  0  0  0  0  0  0  0  0  0  0
    1.5851   -4.3444   -0.9591 C   0  0  0  0  0  0  0  0  0  0  0  0
    0.0984   -2.8975    0.2967 C   0  0  0  0  0  0  0  0  0  0  0  0
    1.2165   -5.5463   -0.0877 C   0  0  0  0  0  0  0  0  0  0  0  0
   -0.3189   -4.0520    1.2090 C   0  0  0  0  0  0  0  0  0  0  0  0
   -0.6977    1.7548   -0.1376 C   0  0  0  0  0  0  0  0  0  0  0  0
   -0.1811   -5.3956    0.5020 C   0  0  0  0  0  0  0  0  0  0  0  0
    5.8398    1.8349    0.5550 C   0  0  0  0  0  0  0  0  0  0  0  0
   -1.4769    0.7141   -0.9015 C   0  0  0  0  0  0  0  0  0  0  0  0
   -2.9038    0.6868   -0.4502 C   0  0  0  0  0  0  0  0  0  0  0  0
   -3.2879   -0.1486    0.5989 C   0  0  0  0  0  0  0  0  0  0  0  0
   -3.8489    1.4986   -1.0772 C   0  0  0  0  0  0  0  0  0  0  0  0
   -4.6172   -0.1722    1.0208 C   0  0  0  0  0  0  0  0  0  0  0  0
   -5.1782    1.4752   -0.6552 C   0  0  0  0  0  0  0  0  0  0  0  0
   -5.5624    0.6398    0.3936 C   0  0  0  0  0  0  0  0  0  0  0  0
   -7.7729    1.4733    0.1212 C   0  0  0  0  0  0  0  0  0  0  0  0
    3.1610    0.0938   -1.8739 H   0  0  0  0  0  0  0  0  0  0  0  0
    3.8202    2.1976   -1.0291 H   0  0  0  0  0  0  0  0  0  0  0  0
    1.6359    1.9186   -2.2999 H   0  0  0  0  0  0  0  0  0  0  0  0
    0.6801    0.4732   -2.0618 H   0  0  0  0  0  0  0  0  0  0  0  0
    1.3494   -0.4776    0.4939 H   0  0  0  0  0  0  0  0  0  0  0  0
    2.9983   -1.0485    0.5094 H   0  0  0  0  0  0  0  0  0  0  0  0
    3.3417    3.0361    1.2486 H   0  0  0  0  0  0  0  0  0  0  0  0
    2.4236    1.5790    1.6128 H   0  0  0  0  0  0  0  0  0  0  0  0
    0.8967    3.3913    1.0066 H   0  0  0  0  0  0  0  0  0  0  0  0
    1.7399    3.6719   -0.5180 H   0  0  0  0  0  0  0  0  0  0  0  0
    2.7811   -2.2066   -1.5918 H   0  0  0  0  0  0  0  0  0  0  0  0
    1.1002   -1.7245   -1.7888 H   0  0  0  0  0  0  0  0  0  0  0  0
    4.5200    0.3583    1.3021 H   0  0  0  0  0  0  0  0  0  0  0  0
    5.1404    0.0678   -0.3468 H   0  0  0  0  0  0  0  0  0  0  0  0
    2.6191   -4.4800   -1.2994 H   0  0  0  0  0  0  0  0  0  0  0  0
    0.9469   -4.3263   -1.8525 H   0  0  0  0  0  0  0  0  0  0  0  0
   -0.6155   -2.8154   -0.5336 H   0  0  0  0  0  0  0  0  0  0  0  0
    0.0100   -1.9834    0.8908 H   0  0  0  0  0  0  0  0  0  0  0  0
    1.9470   -5.6487    0.7249 H   0  0  0  0  0  0  0  0  0  0  0  0
    1.2694   -6.4651   -0.6825 H   0  0  0  0  0  0  0  0  0  0  0  0
   -1.3563   -3.9110    1.5335 H   0  0  0  0  0  0  0  0  0  0  0  0
    0.3026   -4.0491    2.1136 H   0  0  0  0  0  0  0  0  0  0  0  0
   -0.9263   -5.4654   -0.2998 H   0  0  0  0  0  0  0  0  0  0  0  0
   -0.3840   -6.2125    1.2031 H   0  0  0  0  0  0  0  0  0  0  0  0
   -1.0198   -0.2694   -0.7539 H   0  0  0  0  0  0  0  0  0  0  0  0
   -1.4409    0.9426   -1.9729 H   0  0  0  0  0  0  0  0  0  0  0  0
    7.6631    1.8512    1.2439 H   0  0  0  0  0  0  0  0  0  0  0  0
   -2.5605   -0.7845    1.0967 H   0  0  0  0  0  0  0  0  0  0  0  0
   -3.5609    2.1554   -1.8939 H   0  0  0  0  0  0  0  0  0  0  0  0
   -4.9104   -0.8244    1.8388 H   0  0  0  0  0  0  0  0  0  0  0  0
   -5.8598    2.1315   -1.1854 H   0  0  0  0  0  0  0  0  0  0  0  0
   -8.7571    1.3273    0.5782 H   0  0  0  0  0  0  0  0  0  0  0  0
   -7.8670    1.1982   -0.9348 H   0  0  0  0  0  0  0  0  0  0  0  0
   -7.5125    2.5290    0.2537 H   0  0  0  0  0  0  0  0  0  0  0  0
  1 19  2  0  0  0  0
  2 21  1  0  0  0  0
  2 56  1  0  0  0  0
  3 21  2  0  0  0  0
  4 28  1  0  0  0  0
  4 29  1  0  0  0  0
  5  9  1  0  0  0  0
  5 12  1  0  0  0  0
  5 19  1  0  0  0  0
  6 13  1  0  0  0  0
  6 15  1  0  0  0  0
  6 16  1  0  0  0  0
  7  8  1  0  0  0  0
  7  9  1  0  0  0  0
  7 10  1  0  0  0  0
  7 30  1  0  0  0  0
  8 11  1  0  0  0  0
  8 14  1  0  0  0  0
  8 31  1  0  0  0  0
  9 32  1  0  0  0  0
  9 33  1  0  0  0  0
 10 13  1  0  0  0  0
 10 34  1  0  0  0  0
 10 35  1  0  0  0  0
 11 12  1  0  0  0  0
 11 36  1  0  0  0  0
 11 37  1  0  0  0  0
 12 38  1  0  0  0  0
 12 39  1  0  0  0  0
 13 40  1  0  0  0  0
 13 41  1  0  0  0  0
 14 21  1  0  0  0  0
 14 42  1  0  0  0  0
 14 43  1  0  0  0  0
 15 17  1  0  0  0  0
 15 44  1  0  0  0  0
 15 45  1  0  0  0  0
 16 18  1  0  0  0  0
 16 46  1  0  0  0  0
 16 47  1  0  0  0  0
 17 20  1  0  0  0  0
 17 48  1  0  0  0  0
 17 49  1  0  0  0  0
 18 20  1  0  0  0  0
 18 50  1  0  0  0  0
 18 51  1  0  0  0  0
 19 22  1  0  0  0  0
 20 52  1  0  0  0  0
 20 53  1  0  0  0  0
 22 23  1  0  0  0  0
 22 54  1  0  0  0  0
 22 55  1  0  0  0  0
 23 24  2  0  0  0  0
 23 25  1  0  0  0  0
 24 26  1  0  0  0  0
 24 57  1  0  0  0  0
 25 27  2  0  0  0  0
 25 58  1  0  0  0  0
 26 28  2  0  0  0  0
 26 59  1  0  0  0  0
 27 28  1  0  0  0  0
 27 60  1  0  0  0  0
 29 61  1  0  0  0  0
 29 62  1  0  0  0  0
 29 63  1  0  0  0  0
M  END
> <PUBCHEM_COMPOUND_CID>
28959709

> <PUBCHEM_CONFORMER_RMSD>
1.4

> <PUBCHEM_CONFORMER_DIVERSEORDER>
1
63
27
23
54
75
77
22
79
18
35
2
47
82
33
64
31
8
55
44
39
74
80
38
51
19
76
5
57
25
28
61
73
71
50
40
17
12
41
53
59
10
70
66
69
85
26
78
43
36
62
34
6
60
16
52
58
14
21
13
65
46
42
83
81
45
15
7
3
49
37
67
56
24
84
32
20
30
11
48
9
68
29
4
72

> <PUBCHEM_MMFF94_PARTIAL_CHARGES>
27
1 -0.57
12 0.3
13 0.27
14 0.06
15 0.27
16 0.27
19 0.57
2 -0.65
21 0.66
22 0.2
23 -0.14
24 -0.15
25 -0.15
26 -0.15
27 -0.15
28 0.08
29 0.28
3 -0.57
4 -0.36
5 -0.66
56 0.5
57 0.15
58 0.15
59 0.15
6 -0.81
60 0.15
9 0.3

> <PUBCHEM_EFFECTIVE_ROTOR_COUNT>
11.4

> <PUBCHEM_PHARMACOPHORE_FEATURES>
9
1 1 acceptor
1 2 acceptor
1 3 acceptor
1 4 acceptor
1 6 cation
3 2 3 21 anion
6 23 24 25 26 27 28 rings
6 5 7 8 9 11 12 rings
6 6 15 16 17 18 20 rings

> <PUBCHEM_HEAVY_ATOM_COUNT>
29

> <PUBCHEM_ATOM_DEF_STEREO_COUNT>
2

> <PUBCHEM_ATOM_UDEF_STEREO_COUNT>
0

> <PUBCHEM_BOND_DEF_STEREO_COUNT>
0

> <PUBCHEM_BOND_UDEF_STEREO_COUNT>
0

> <PUBCHEM_ISOTOPIC_ATOM_COUNT>
0

> <PUBCHEM_COMPONENT_COUNT>
1

> <PUBCHEM_CACTVS_TAUTO_COUNT>
1

> <PUBCHEM_CONFORMER_ID>
01B9E3DD00000001

> <PUBCHEM_MMFF94_ENERGY>
60.746

> <PUBCHEM_FEATURE_SELFOVERLAP>
45.729

> <PUBCHEM_SHAPE_FINGERPRINT>
10074138 170 18051387833836475514
10653451 467 18337397020449488534
11014199 57 17257657716448231563
114674 6 18263089824998281379
11524674 6 18409726304662547762
11719270 70 18409448076908219396
11991303 11 18188775080107469710
13533116 47 18339367341117271325
13692114 37 18196645422698909571
138480 1 17977384932328777431
14028597 1 17917720058928981977
14863182 85 18335431136180449732
14866123 147 18194115450479998858
15927050 60 18413387656972327695
16728300 4 17461411682767236778
19319366 153 18342452629951135391
1979834 28 18260840271620745053
20511986 3 17632565042728426181
21033648 29 18270107054357059744
21133410 32 16161371114974394851
21703447 108 18122060905926126351
22224240 67 18271519883748650096
22956985 138 17902225612538139770
23559900 14 17903068933487135559
23845131 108 18410011078433305927
238918 7 18265911304731364043
3421961 26 18193561064907189007
345986 75 17702100254049567697
38695281 34 18409727382709973083
4340502 62 18411418419099273188
4403749 210 18192425488022530801
5265222 85 18190754204900417244
5309563 4 17834680392550725831
5385378 56 18338522941782909105
653340 110 17763462116103647106
6669772 16 18412545396694877422
6673363 416 17405153925220538126
9777508 108 18051972816402295698

> <PUBCHEM_SHAPE_MULTIPOLES>
563.37
14.13
6.52
1.13
14.43
14.27
-0.12
-15
3.78
-6.16
0.68
-0.07
0.05
1.58

> <PUBCHEM_SHAPE_SELFOVERLAP>
1162.235

> <PUBCHEM_SHAPE_VOLUME>
320.4

> <PUBCHEM_COORDINATE_TYPE>
2
5
10

$$$$
