45361570
  -OEChem-12032416393D

 70 73  0     1  0  0  0  0  0999 V2000
    0.4282   -2.3511   -1.3597 O   0  0  0  0  0  0  0  0  0  0  0  0
    5.3129   -2.2208    0.8068 O   0  0  0  0  0  0  0  0  0  0  0  0
   -4.9030    1.9724   -1.2144 O   0  0  0  0  0  0  0  0  0  0  0  0
   -4.1564    0.1714    0.0404 N   0  0  0  0  0  0  0  0  0  0  0  0
    4.7934   -1.2071   -1.2137 N   0  0  0  0  0  0  0  0  0  0  0  0
   -9.1751   -0.2719    0.0854 N   0  0  0  0  0  0  0  0  0  0  0  0
    7.0102    0.7823    0.2721 N   0  0  0  0  0  0  0  0  0  0  0  0
   -0.0139    0.4688    1.1755 C   0  0  1  0  0  0  0  0  0  0  0  0
   -0.3517   -0.4527   -0.0433 C   0  0  2  0  0  0  0  0  0  0  0  0
   -1.8789   -0.8203   -0.0599 C   0  0  1  0  0  0  0  0  0  0  0  0
    0.6271   -1.6594   -0.1261 C   0  0  2  0  0  0  0  0  0  0  0  0
    1.4689    0.9031    1.0988 C   0  0  0  0  0  0  0  0  0  0  0  0
   -0.8827    1.7455    1.0984 C   0  0  0  0  0  0  0  0  0  0  0  0
    2.1109   -1.2244   -0.0975 C   0  0  1  0  0  0  0  0  0  0  0  0
   -2.7437    0.4716   -0.0615 C   0  0  2  0  0  0  0  0  0  0  0  0
    2.4321   -0.2759    1.0574 C   0  0  0  0  0  0  0  0  0  0  0  0
   -2.3752    1.4509    1.0527 C   0  0  0  0  0  0  0  0  0  0  0  0
   -0.2574   -0.2324    2.5360 C   0  0  0  0  0  0  0  0  0  0  0  0
    3.0566   -2.4308   -0.0478 C   0  0  2  0  0  0  0  0  0  0  0  0
   -2.2869   -1.7034   -1.2512 C   0  0  0  0  0  0  0  0  0  0  0  0
    2.7748   -3.2677    1.1952 C   0  0  0  0  0  0  0  0  0  0  0  0
    4.5062   -1.9568   -0.0823 C   0  0  0  0  0  0  0  0  0  0  0  0
   -5.1258    0.9608   -0.5543 C   0  0  0  0  0  0  0  0  0  0  0  0
   -6.5313    0.5328   -0.3341 C   0  0  0  0  0  0  0  0  0  0  0  0
    6.1003   -0.6470   -1.4688 C   0  0  0  0  0  0  0  0  0  0  0  0
   -7.5592    1.4685   -0.3666 C   0  0  0  0  0  0  0  0  0  0  0  0
   -6.8237   -0.8049   -0.0920 C   0  0  0  0  0  0  0  0  0  0  0  0
    6.2597    0.7118   -0.8503 C   0  0  0  0  0  0  0  0  0  0  0  0
   -8.8523    1.0192   -0.1527 C   0  0  0  0  0  0  0  0  0  0  0  0
   -8.1497   -1.1526    0.1095 C   0  0  0  0  0  0  0  0  0  0  0  0
    5.6458    1.8035   -1.4428 C   0  0  0  0  0  0  0  0  0  0  0  0
    5.8126    3.0478   -0.8449 C   0  0  0  0  0  0  0  0  0  0  0  0
    7.1498    2.0082    0.8248 C   0  0  0  0  0  0  0  0  0  0  0  0
    6.5775    3.1606    0.3109 C   0  0  0  0  0  0  0  0  0  0  0  0
   -0.1837    0.1374   -0.9586 H   0  0  0  0  0  0  0  0  0  0  0  0
   -2.1143   -1.3980    0.8429 H   0  0  0  0  0  0  0  0  0  0  0  0
    0.3728   -2.3505    0.6792 H   0  0  0  0  0  0  0  0  0  0  0  0
    1.7222    1.5433    1.9537 H   0  0  0  0  0  0  0  0  0  0  0  0
    1.6289    1.5155    0.2010 H   0  0  0  0  0  0  0  0  0  0  0  0
   -0.6733    2.4001    1.9540 H   0  0  0  0  0  0  0  0  0  0  0  0
   -0.6157    2.3196    0.2008 H   0  0  0  0  0  0  0  0  0  0  0  0
    2.2883   -0.6710   -1.0293 H   0  0  0  0  0  0  0  0  0  0  0  0
   -2.5813    0.9834   -1.0203 H   0  0  0  0  0  0  0  0  0  0  0  0
    3.4435    0.1343    0.9555 H   0  0  0  0  0  0  0  0  0  0  0  0
    2.4066   -0.7714    2.0302 H   0  0  0  0  0  0  0  0  0  0  0  0
   -2.7129    1.0650    2.0223 H   0  0  0  0  0  0  0  0  0  0  0  0
   -2.9171    2.3951    0.9118 H   0  0  0  0  0  0  0  0  0  0  0  0
   -1.3055   -0.4986    2.6947 H   0  0  0  0  0  0  0  0  0  0  0  0
    0.0336    0.4236    3.3648 H   0  0  0  0  0  0  0  0  0  0  0  0
    0.3155   -1.1582    2.6386 H   0  0  0  0  0  0  0  0  0  0  0  0
    2.9086   -3.0630   -0.9327 H   0  0  0  0  0  0  0  0  0  0  0  0
   -1.8915   -2.7175   -1.1447 H   0  0  0  0  0  0  0  0  0  0  0  0
   -3.3733   -1.8203   -1.3205 H   0  0  0  0  0  0  0  0  0  0  0  0
   -1.9384   -1.2791   -2.1984 H   0  0  0  0  0  0  0  0  0  0  0  0
   -4.4208   -0.5846    0.6634 H   0  0  0  0  0  0  0  0  0  0  0  0
    0.5970   -1.7278   -2.0867 H   0  0  0  0  0  0  0  0  0  0  0  0
    1.7808   -3.7201    1.1927 H   0  0  0  0  0  0  0  0  0  0  0  0
    3.4765   -4.1118    1.2248 H   0  0  0  0  0  0  0  0  0  0  0  0
    2.9227   -2.7355    2.1376 H   0  0  0  0  0  0  0  0  0  0  0  0
    4.0855   -1.0781   -1.9293 H   0  0  0  0  0  0  0  0  0  0  0  0
    6.2358   -0.5888   -2.5544 H   0  0  0  0  0  0  0  0  0  0  0  0
    6.8641   -1.3301   -1.0794 H   0  0  0  0  0  0  0  0  0  0  0  0
   -7.3735    2.5218   -0.5475 H   0  0  0  0  0  0  0  0  0  0  0  0
   -6.0717   -1.5856   -0.0822 H   0  0  0  0  0  0  0  0  0  0  0  0
   -9.6896    1.7092   -0.1667 H   0  0  0  0  0  0  0  0  0  0  0  0
   -8.4318   -2.1838    0.2950 H   0  0  0  0  0  0  0  0  0  0  0  0
    5.0503    1.7045   -2.3440 H   0  0  0  0  0  0  0  0  0  0  0  0
    5.3471    3.9277   -1.2784 H   0  0  0  0  0  0  0  0  0  0  0  0
    7.7553    2.0424    1.7245 H   0  0  0  0  0  0  0  0  0  0  0  0
    6.7208    4.1202    0.7941 H   0  0  0  0  0  0  0  0  0  0  0  0
  1 11  1  0  0  0  0
  1 56  1  0  0  0  0
  2 22  2  0  0  0  0
  3 23  2  0  0  0  0
  4 15  1  0  0  0  0
  4 23  1  0  0  0  0
  4 55  1  0  0  0  0
  5 22  1  0  0  0  0
  5 25  1  0  0  0  0
  5 60  1  0  0  0  0
  6 29  2  0  0  0  0
  6 30  1  0  0  0  0
  7 28  1  0  0  0  0
  7 33  2  0  0  0  0
  8  9  1  0  0  0  0
  8 12  1  0  0  0  0
  8 13  1  0  0  0  0
  8 18  1  0  0  0  0
  9 10  1  0  0  0  0
  9 11  1  0  0  0  0
  9 35  1  0  0  0  0
 10 15  1  0  0  0  0
 10 20  1  0  0  0  0
 10 36  1  0  0  0  0
 11 14  1  0  0  0  0
 11 37  1  0  0  0  0
 12 16  1  0  0  0  0
 12 38  1  0  0  0  0
 12 39  1  0  0  0  0
 13 17  1  0  0  0  0
 13 40  1  0  0  0  0
 13 41  1  0  0  0  0
 14 16  1  0  0  0  0
 14 19  1  0  0  0  0
 14 42  1  0  0  0  0
 15 17  1  0  0  0  0
 15 43  1  0  0  0  0
 16 44  1  0  0  0  0
 16 45  1  0  0  0  0
 17 46  1  0  0  0  0
 17 47  1  0  0  0  0
 18 48  1  0  0  0  0
 18 49  1  0  0  0  0
 18 50  1  0  0  0  0
 19 21  1  0  0  0  0
 19 22  1  0  0  0  0
 19 51  1  0  0  0  0
 20 52  1  0  0  0  0
 20 53  1  0  0  0  0
 20 54  1  0  0  0  0
 21 57  1  0  0  0  0
 21 58  1  0  0  0  0
 21 59  1  0  0  0  0
 23 24  1  0  0  0  0
 24 26  2  0  0  0  0
 24 27  1  0  0  0  0
 25 28  1  0  0  0  0
 25 61  1  0  0  0  0
 25 62  1  0  0  0  0
 26 29  1  0  0  0  0
 26 63  1  0  0  0  0
 27 30  2  0  0  0  0
 27 64  1  0  0  0  0
 28 31  2  0  0  0  0
 29 65  1  0  0  0  0
 30 66  1  0  0  0  0
 31 32  1  0  0  0  0
 31 67  1  0  0  0  0
 32 34  2  0  0  0  0
 32 68  1  0  0  0  0
 33 34  1  0  0  0  0
 33 69  1  0  0  0  0
 34 70  1  0  0  0  0
M  END
> <PUBCHEM_COMPOUND_CID>
45361570

> <PUBCHEM_CONFORMER_RMSD>
1

> <PUBCHEM_CONFORMER_DIVERSEORDER>
1
83
139
69
106
200
182
194
2
67
256
214
30
172
101
158
140
74
49
252
150
121
196
258
235
142
138
152
104
88
175
232
259
60
149
148
167
237
260
135
75
116
229
100
171
10
253
215
174
84
98
249
44
245
112
220
144
191
130
186
12
115
41
213
145
188
78
37
50
206
180
255
25
109
92
204
257
189
34
32
66
179
52
205
13
156
216
127
137
165
86
176
9
79
234
120
230
40
46
159
114
134
242
126
62
72
110
254
199
162
208
163
123
23
82
247
58
207
3
90
192
218
248
7
107
35
185
219
211
233
64
153
131
222
178
251
87
241
124
240
157
225
239
59
228
133
246
161
224
91
198
244
151
38
223
217
119
99
132
94
187
54
231
209
39
125
250
51
183
155
203
212
22
97
154
73
43
16
221
160
168
81
201
105
80
55
122
71
181
170
96
4
27
197
14
26
164
136
18
24
243
118
48
102
177
166
76
128
238
70
56
236
184
6
77
190
143
11
5
117
95
63
36
89
227
113
17
33
8
47
169
195
210
103
21
202
65
45
129
226
146
31
61
173
15
85
147
42
193
29
141
20
53
111
68
57
19
28
108
93

> <PUBCHEM_MMFF94_PARTIAL_CHARGES>
34
1 -0.68
11 0.28
15 0.3
19 0.06
2 -0.57
22 0.57
23 0.54
24 0.09
25 0.44
26 -0.15
27 -0.15
28 0.17
29 0.16
3 -0.57
30 0.16
31 -0.15
32 -0.15
33 0.16
34 -0.15
4 -0.73
5 -0.73
55 0.37
56 0.4
6 -0.62
60 0.37
63 0.15
64 0.15
65 0.15
66 0.15
67 0.15
68 0.15
69 0.15
7 -0.62
70 0.15

> <PUBCHEM_EFFECTIVE_ROTOR_COUNT>
9.6

> <PUBCHEM_PHARMACOPHORE_FEATURES>
13
1 1 acceptor
1 1 donor
1 2 acceptor
1 21 hydrophobe
1 3 acceptor
1 4 donor
1 5 donor
1 6 acceptor
1 7 acceptor
6 6 24 26 27 29 30 rings
6 7 28 31 32 33 34 rings
6 8 9 10 13 15 17 rings
6 8 9 11 12 14 16 rings

> <PUBCHEM_HEAVY_ATOM_COUNT>
34

> <PUBCHEM_ATOM_DEF_STEREO_COUNT>
6

> <PUBCHEM_ATOM_UDEF_STEREO_COUNT>
1

> <PUBCHEM_BOND_DEF_STEREO_COUNT>
0

> <PUBCHEM_BOND_UDEF_STEREO_COUNT>
0

> <PUBCHEM_ISOTOPIC_ATOM_COUNT>
0

> <PUBCHEM_COMPONENT_COUNT>
1

> <PUBCHEM_CACTVS_TAUTO_COUNT>
4

> <PUBCHEM_CONFORMER_ID>
02B429A200000001

> <PUBCHEM_MMFF94_ENERGY>
99.5696

> <PUBCHEM_FEATURE_SELFOVERLAP>
65.988

> <PUBCHEM_SHAPE_FINGERPRINT>
10533779 47 10159702439009978037
10673678 19 18412267233469923678
10677351 14 18412819189272262405
10816530 90 18059848498265410712
10906281 52 17845947238349906051
11007060 377 18334022683534379393
11135609 187 18197218260020506840
11211813 74 18410291402517017477
13165053 68 18118127107221516855
13617811 41 16415764120070981720
13947947 19 17774994718412734343
14251757 52 18408603664678152085
14675020 138 15285357301822259666
150020 25 18409738364957290094
15183329 4 16988561295224710461
15361156 5 18412823604303567647
15840311 113 18408888430058696110
15890870 6 18336550517118798964
16120349 18 18335135397374736133
16992787 43 18202284731727378473
16994733 274 17749107751865566269
17686467 74 18113339731057809541
18608769 82 18339642343246152455
19319366 153 18411132507485142638
20157964 124 18407761426540410588
20715895 44 18409448133623684348
21049683 118 17822566218617785034
21049683 271 18343582958529046441
21150785 3 18335141981934030053
21267235 1 17917710145912385763
21521721 280 18409735045353843275
21781055 127 15410632389075454131
22149856 69 17417255320906595251
23522609 53 17773900639217461649
23569914 2 17027358662328113956
3044373 193 17095525093705163140
34797466 226 18059580165756782966
3552219 110 17917722288317942257
4073 2 18260550043991854539
4098825 35 18334574608285990045
4149490 64 18187081746064686634
44317340 157 18342738529329742790
4625314 4 18337112267890017663
5109719 28 18261120711415911384
5265222 85 18413107282261332751
5372103 7 15696857342234200896

> <PUBCHEM_SHAPE_MULTIPOLES>
662.17
25.34
3.11
1.42
32.79
0.17
0.33
-11.88
-5.57
-5.84
-0.06
-1.17
0.02
-0.2

> <PUBCHEM_SHAPE_SELFOVERLAP>
1402.825

> <PUBCHEM_SHAPE_VOLUME>
363.9

> <PUBCHEM_COORDINATE_TYPE>
2
5
10

$$$$
