7050094
  -OEChem-12032416153D

 57 58  0     1  0  0  0  0  0999 V2000
   -7.1186   -2.9527    1.2237 F   0  0  0  0  0  0  0  0  0  0  0  0
   -0.0822    2.4257    1.9252 O   0  0  0  0  0  0  0  0  0  0  0  0
    0.9649    4.4388   -0.9443 O   0  0  0  0  0  0  0  0  0  0  0  0
    4.3119    1.2335   -1.2829 O   0  0  0  0  0  0  0  0  0  0  0  0
   -3.0512    1.7531   -1.0383 O   0  0  0  0  0  0  0  0  0  0  0  0
    5.2802   -0.5062    2.1563 O   0  0  0  0  0  0  0  0  0  0  0  0
   -1.2451    0.7811    0.0286 N   0  0  0  0  0  0  0  0  0  0  0  0
    3.4462   -0.4190    0.1163 N   0  0  0  0  0  0  0  0  0  0  0  0
   -3.3087   -0.2070    0.2274 N   0  0  0  0  0  0  0  0  0  0  0  0
    6.8556   -1.2514    0.6605 N   0  0  0  0  0  0  0  0  0  0  0  0
   -0.1531    2.9235    0.5873 C   0  0  1  0  0  0  0  0  0  0  0  0
    1.0917    3.7759    0.3120 C   0  0  1  0  0  0  0  0  0  0  0  0
   -0.2594    1.7439   -0.3982 C   0  0  1  0  0  0  0  0  0  0  0  0
    2.3832    2.9404    0.3397 C   0  0  0  0  0  0  0  0  0  0  0  0
    2.2260    1.5794   -0.2766 C   0  0  0  0  0  0  0  0  0  0  0  0
    1.0491    1.0347   -0.6200 C   0  0  0  0  0  0  0  0  0  0  0  0
    4.5296   -1.3609    0.0077 C   0  0  2  0  0  0  0  0  0  0  0  0
    3.4371    0.7977   -0.5425 C   0  0  0  0  0  0  0  0  0  0  0  0
    4.0672   -2.8069    0.2263 C   0  0  0  0  0  0  0  0  0  0  0  0
    2.9630   -3.2858   -0.7384 C   0  0  0  0  0  0  0  0  0  0  0  0
    2.5509   -4.7168   -0.3820 C   0  0  0  0  0  0  0  0  0  0  0  0
    3.4016   -3.2258   -2.2021 C   0  0  0  0  0  0  0  0  0  0  0  0
   -2.5960    0.8581   -0.3304 C   0  0  0  0  0  0  0  0  0  0  0  0
    5.5640   -0.9738    1.0561 C   0  0  0  0  0  0  0  0  0  0  0  0
   -4.6895   -0.4873    0.1031 C   0  0  0  0  0  0  0  0  0  0  0  0
   -5.2340   -1.6044    0.7365 C   0  0  0  0  0  0  0  0  0  0  0  0
   -5.5068    0.3537   -0.6521 C   0  0  0  0  0  0  0  0  0  0  0  0
   -6.5959   -1.8802    0.6151 C   0  0  0  0  0  0  0  0  0  0  0  0
   -6.8687    0.0778   -0.7737 C   0  0  0  0  0  0  0  0  0  0  0  0
   -7.4131   -1.0391   -0.1401 C   0  0  0  0  0  0  0  0  0  0  0  0
   -1.0610    3.5339    0.5094 H   0  0  0  0  0  0  0  0  0  0  0  0
    1.1741    4.5585    1.0761 H   0  0  0  0  0  0  0  0  0  0  0  0
   -0.5739    2.1358   -1.3744 H   0  0  0  0  0  0  0  0  0  0  0  0
    3.1846    3.4859   -0.1728 H   0  0  0  0  0  0  0  0  0  0  0  0
    2.6951    2.7994    1.3823 H   0  0  0  0  0  0  0  0  0  0  0  0
    1.0121    0.0611   -1.1048 H   0  0  0  0  0  0  0  0  0  0  0  0
    4.9838   -1.2515   -0.9838 H   0  0  0  0  0  0  0  0  0  0  0  0
   -0.9585    0.0403    0.6620 H   0  0  0  0  0  0  0  0  0  0  0  0
    4.9350   -3.4756    0.1486 H   0  0  0  0  0  0  0  0  0  0  0  0
    3.6998   -2.9121    1.2567 H   0  0  0  0  0  0  0  0  0  0  0  0
    2.0783   -2.6484   -0.6187 H   0  0  0  0  0  0  0  0  0  0  0  0
    2.6922   -0.6415    0.7609 H   0  0  0  0  0  0  0  0  0  0  0  0
   -0.0457    3.1932    2.5212 H   0  0  0  0  0  0  0  0  0  0  0  0
    1.7494    5.0014   -1.0608 H   0  0  0  0  0  0  0  0  0  0  0  0
    3.3901   -5.4120   -0.4926 H   0  0  0  0  0  0  0  0  0  0  0  0
    2.1969   -4.7734    0.6528 H   0  0  0  0  0  0  0  0  0  0  0  0
    1.7382   -5.0609   -1.0307 H   0  0  0  0  0  0  0  0  0  0  0  0
    2.6293   -3.6447   -2.8564 H   0  0  0  0  0  0  0  0  0  0  0  0
    3.5723   -2.1944   -2.5250 H   0  0  0  0  0  0  0  0  0  0  0  0
    4.3247   -3.7926   -2.3635 H   0  0  0  0  0  0  0  0  0  0  0  0
   -2.7781   -0.8653    0.7923 H   0  0  0  0  0  0  0  0  0  0  0  0
    7.6409   -1.0543    1.2721 H   0  0  0  0  0  0  0  0  0  0  0  0
    7.0741   -1.6591   -0.2430 H   0  0  0  0  0  0  0  0  0  0  0  0
   -4.6085   -2.2679    1.3281 H   0  0  0  0  0  0  0  0  0  0  0  0
   -5.1596    1.2357   -1.1714 H   0  0  0  0  0  0  0  0  0  0  0  0
   -7.5063    0.7319   -1.3615 H   0  0  0  0  0  0  0  0  0  0  0  0
   -8.4735   -1.2542   -0.2345 H   0  0  0  0  0  0  0  0  0  0  0  0
  1 28  1  0  0  0  0
  2 11  1  0  0  0  0
  2 43  1  0  0  0  0
  3 12  1  0  0  0  0
  3 44  1  0  0  0  0
  4 18  2  0  0  0  0
  5 23  2  0  0  0  0
  6 24  2  0  0  0  0
  7 13  1  0  0  0  0
  7 23  1  0  0  0  0
  7 38  1  0  0  0  0
  8 17  1  0  0  0  0
  8 18  1  0  0  0  0
  8 42  1  0  0  0  0
  9 23  1  0  0  0  0
  9 25  1  0  0  0  0
  9 51  1  0  0  0  0
 10 24  1  0  0  0  0
 10 52  1  0  0  0  0
 10 53  1  0  0  0  0
 11 12  1  0  0  0  0
 11 13  1  0  0  0  0
 11 31  1  0  0  0  0
 12 14  1  0  0  0  0
 12 32  1  0  0  0  0
 13 16  1  0  0  0  0
 13 33  1  0  0  0  0
 14 15  1  0  0  0  0
 14 34  1  0  0  0  0
 14 35  1  0  0  0  0
 15 16  2  0  0  0  0
 15 18  1  0  0  0  0
 16 36  1  0  0  0  0
 17 19  1  0  0  0  0
 17 24  1  0  0  0  0
 17 37  1  0  0  0  0
 19 20  1  0  0  0  0
 19 39  1  0  0  0  0
 19 40  1  0  0  0  0
 20 21  1  0  0  0  0
 20 22  1  0  0  0  0
 20 41  1  0  0  0  0
 21 45  1  0  0  0  0
 21 46  1  0  0  0  0
 21 47  1  0  0  0  0
 22 48  1  0  0  0  0
 22 49  1  0  0  0  0
 22 50  1  0  0  0  0
 25 26  2  0  0  0  0
 25 27  1  0  0  0  0
 26 28  1  0  0  0  0
 26 54  1  0  0  0  0
 27 29  2  0  0  0  0
 27 55  1  0  0  0  0
 28 30  2  0  0  0  0
 29 30  1  0  0  0  0
 29 56  1  0  0  0  0
 30 57  1  0  0  0  0
M  END
> <PUBCHEM_COMPOUND_CID>
7050094

> <PUBCHEM_CONFORMER_RMSD>
1.2

> <PUBCHEM_CONFORMER_DIVERSEORDER>
1
52
58
47
49
22
69
89
84
87
83
23
51
91
85
5
62
86
36
103
75
26
2
24
71
53
76
60
92
27
21
72
73
39
13
32
6
30
102
57
59
14
45
19
4
56
74
65
15
93
44
70
3
63
68
48
25
81
80
12
8
29
33
88
37
28
16
90
46
40
78
96
95
77
101
50
7
67
97
18
54
100
61
10
55
9
64
11
79
43
38
35
66
41
17
34
99
82
94
42
20
31
98

> <PUBCHEM_MMFF94_PARTIAL_CHARGES>
38
1 -0.19
10 -0.8
11 0.28
12 0.28
13 0.44
14 0.14
15 -0.12
16 -0.29
17 0.36
18 0.62
2 -0.68
23 0.69
24 0.57
25 0.12
26 -0.15
27 -0.15
28 0.19
29 -0.15
3 -0.68
30 -0.15
36 0.15
38 0.37
4 -0.57
42 0.37
43 0.4
44 0.4
5 -0.57
51 0.37
52 0.37
53 0.37
54 0.15
55 0.15
56 0.15
57 0.15
6 -0.57
7 -0.73
8 -0.73
9 -0.55

> <PUBCHEM_EFFECTIVE_ROTOR_COUNT>
10.8

> <PUBCHEM_PHARMACOPHORE_FEATURES>
14
1 10 donor
1 2 acceptor
1 2 donor
1 3 acceptor
1 3 donor
1 4 acceptor
1 5 acceptor
1 6 acceptor
1 7 donor
1 8 donor
1 9 donor
3 20 21 22 hydrophobe
6 11 12 13 14 15 16 rings
6 25 26 27 28 29 30 rings

> <PUBCHEM_HEAVY_ATOM_COUNT>
30

> <PUBCHEM_ATOM_DEF_STEREO_COUNT>
4

> <PUBCHEM_ATOM_UDEF_STEREO_COUNT>
0

> <PUBCHEM_BOND_DEF_STEREO_COUNT>
0

> <PUBCHEM_BOND_UDEF_STEREO_COUNT>
0

> <PUBCHEM_ISOTOPIC_ATOM_COUNT>
0

> <PUBCHEM_COMPONENT_COUNT>
1

> <PUBCHEM_CACTVS_TAUTO_COUNT>
12

> <PUBCHEM_CONFORMER_ID>
006B936E00000001

> <PUBCHEM_MMFF94_ENERGY>
63.3422

> <PUBCHEM_FEATURE_SELFOVERLAP>
71.107

> <PUBCHEM_SHAPE_FINGERPRINT>
10258939 38 18041543794459222528
117089 54 18269002976841743030
11796584 16 18042677317410178205
12107183 9 18198919020041302337
12758862 65 18410565215551212922
13782708 43 18187925123333208955
13785724 45 18128272098783098071
13955234 65 18053945331900419265
14251740 57 18059301950481304670
15003188 105 18114744820270448242
15183329 4 17530960268252884385
15419008 42 17973704910303182343
15927050 60 17764589116318981804
17492 89 18123750847093705574
17909252 39 18412261722615549880
1979834 28 18060419110240423886
20567600 70 18408319995068332786
21033650 10 16226319319194236501
21197605 99 18410576219041717794
21315759 227 18262231102163719326
23559900 14 18188767379432054693
3004659 81 18040152911953672952
3421961 26 18411979191082398913
345986 75 17704078369635580809
439807 62 18113898265003998699
4461854 278 17989488537259814566
46194498 28 17749387117427863821
463206 1 18340201985505271198
5309563 4 18269278967376727542

> <PUBCHEM_SHAPE_MULTIPOLES>
560.84
18.17
5.36
1.32
27.15
0.46
0.08
16.55
3.24
-5.02
-0.68
-1.06
0.32
1.7

> <PUBCHEM_SHAPE_SELFOVERLAP>
1162.317

> <PUBCHEM_SHAPE_VOLUME>
318.8

> <PUBCHEM_COORDINATE_TYPE>
2
5
10

$$$$
