28990967
  -OEChem-12032416163D

 67 71  0     1  0  0  0  0  0999 V2000
    5.9915   -1.6486    0.3096 F   0  0  0  0  0  0  0  0  0  0  0  0
   -4.3629    0.3768    1.1543 N   0  0  2  0  0  0  0  0  0  0  0  0
   -1.3556   -3.3634   -0.2742 N   0  0  0  0  0  0  0  0  0  0  0  0
   -2.5272    3.2311   -0.5067 N   0  0  0  0  0  0  0  0  0  0  0  0
   -0.0291   -3.5713   -0.3339 N   0  0  0  0  0  0  0  0  0  0  0  0
    3.7388    1.9985   -0.2055 N   0  0  0  0  0  0  0  0  0  0  0  0
   -3.8374   -1.0203   -0.9800 C   0  0  2  0  0  0  0  0  0  0  0  0
   -3.1424   -1.6430    0.2624 C   0  0  2  0  0  0  0  0  0  0  0  0
   -3.8947    1.2718    0.0634 C   0  0  2  0  0  0  0  0  0  0  0  0
   -3.3834    0.4463   -1.1368 C   0  0  0  0  0  0  0  0  0  0  0  0
   -5.3512   -0.9967   -0.6780 C   0  0  0  0  0  0  0  0  0  0  0  0
   -3.3329   -0.6514    1.4456 C   0  0  0  0  0  0  0  0  0  0  0  0
   -5.5861   -0.3146    0.6812 C   0  0  0  0  0  0  0  0  0  0  0  0
   -2.8521    2.2826    0.5458 C   0  0  0  0  0  0  0  0  0  0  0  0
   -1.6987   -2.1042    0.1223 C   0  0  0  0  0  0  0  0  0  0  0  0
   -0.5145   -1.4426    0.3376 C   0  0  0  0  0  0  0  0  0  0  0  0
    0.4793   -2.3945    0.0409 C   0  0  0  0  0  0  0  0  0  0  0  0
   -1.5267    4.1907   -0.0563 C   0  0  0  0  0  0  0  0  0  0  0  0
   -2.2548   -4.4409   -0.6170 C   0  0  0  0  0  0  0  0  0  0  0  0
    1.9044   -2.2016    0.1103 C   0  0  0  0  0  0  0  0  0  0  0  0
   -0.1372    3.6122   -0.0957 C   0  0  0  0  0  0  0  0  0  0  0  0
    2.5032   -1.8550    1.3217 C   0  0  0  0  0  0  0  0  0  0  0  0
    2.6864   -2.3616   -1.0336 C   0  0  0  0  0  0  0  0  0  0  0  0
    0.6257    3.5499    1.0705 C   0  0  0  0  0  0  0  0  0  0  0  0
    0.3872    3.1383   -1.2982 C   0  0  0  0  0  0  0  0  0  0  0  0
    3.8837   -1.6682    1.3890 C   0  0  0  0  0  0  0  0  0  0  0  0
    4.0670   -2.1747   -0.9663 C   0  0  0  0  0  0  0  0  0  0  0  0
    1.9128    3.0139    1.0341 C   0  0  0  0  0  0  0  0  0  0  0  0
    1.6745    2.6025   -1.3348 C   0  0  0  0  0  0  0  0  0  0  0  0
    2.4372    2.5403   -0.1686 C   0  0  0  0  0  0  0  0  0  0  0  0
    4.6656   -1.8281    0.2449 C   0  0  0  0  0  0  0  0  0  0  0  0
    4.2900    1.4966   -1.4486 C   0  0  0  0  0  0  0  0  0  0  0  0
    4.5395    1.9293    1.0006 C   0  0  0  0  0  0  0  0  0  0  0  0
   -3.6268   -1.5923   -1.8895 H   0  0  0  0  0  0  0  0  0  0  0  0
   -3.7206   -2.5406    0.5290 H   0  0  0  0  0  0  0  0  0  0  0  0
   -4.7632    1.8602   -0.2695 H   0  0  0  0  0  0  0  0  0  0  0  0
   -2.2914    0.4825   -1.2251 H   0  0  0  0  0  0  0  0  0  0  0  0
   -3.7940    0.8605   -2.0660 H   0  0  0  0  0  0  0  0  0  0  0  0
   -5.7531   -2.0164   -0.6574 H   0  0  0  0  0  0  0  0  0  0  0  0
   -5.8810   -0.4547   -1.4708 H   0  0  0  0  0  0  0  0  0  0  0  0
   -3.6470   -1.2196    2.3322 H   0  0  0  0  0  0  0  0  0  0  0  0
   -2.4036   -0.1662    1.7571 H   0  0  0  0  0  0  0  0  0  0  0  0
   -6.4139    0.4007    0.6009 H   0  0  0  0  0  0  0  0  0  0  0  0
   -5.9079   -1.0530    1.4267 H   0  0  0  0  0  0  0  0  0  0  0  0
   -1.9463    1.7597    0.8705 H   0  0  0  0  0  0  0  0  0  0  0  0
   -3.2512    2.8166    1.4182 H   0  0  0  0  0  0  0  0  0  0  0  0
   -0.3834   -0.4171    0.6530 H   0  0  0  0  0  0  0  0  0  0  0  0
   -3.3747    3.7337   -0.7710 H   0  0  0  0  0  0  0  0  0  0  0  0
   -1.7743    4.5943    0.9336 H   0  0  0  0  0  0  0  0  0  0  0  0
   -1.5386    5.0520   -0.7366 H   0  0  0  0  0  0  0  0  0  0  0  0
   -1.6863   -5.2593   -1.0669 H   0  0  0  0  0  0  0  0  0  0  0  0
   -2.7412   -4.7861    0.2985 H   0  0  0  0  0  0  0  0  0  0  0  0
   -2.9906   -4.0728   -1.3357 H   0  0  0  0  0  0  0  0  0  0  0  0
    1.9107   -1.7277    2.2246 H   0  0  0  0  0  0  0  0  0  0  0  0
    2.2376   -2.6273   -1.9878 H   0  0  0  0  0  0  0  0  0  0  0  0
    0.2287    3.9144    2.0142 H   0  0  0  0  0  0  0  0  0  0  0  0
   -0.1934    3.1852   -2.2159 H   0  0  0  0  0  0  0  0  0  0  0  0
    4.3505   -1.3984    2.3317 H   0  0  0  0  0  0  0  0  0  0  0  0
    4.6762   -2.2968   -1.8570 H   0  0  0  0  0  0  0  0  0  0  0  0
    2.4662    2.9890    1.9675 H   0  0  0  0  0  0  0  0  0  0  0  0
    2.0379    2.2502   -2.2950 H   0  0  0  0  0  0  0  0  0  0  0  0
    5.2910    1.0741   -1.3076 H   0  0  0  0  0  0  0  0  0  0  0  0
    4.3917    2.3016   -2.1849 H   0  0  0  0  0  0  0  0  0  0  0  0
    3.6689    0.6983   -1.8680 H   0  0  0  0  0  0  0  0  0  0  0  0
    5.5097    1.4546    0.8168 H   0  0  0  0  0  0  0  0  0  0  0  0
    4.0439    1.3370    1.7770 H   0  0  0  0  0  0  0  0  0  0  0  0
    4.7510    2.9320    1.3885 H   0  0  0  0  0  0  0  0  0  0  0  0
  1 31  1  0  0  0  0
  2  9  1  0  0  0  0
  2 12  1  0  0  0  0
  2 13  1  0  0  0  0
  3  5  1  0  0  0  0
  3 15  1  0  0  0  0
  3 19  1  0  0  0  0
  4 14  1  0  0  0  0
  4 18  1  0  0  0  0
  4 48  1  0  0  0  0
  5 17  2  0  0  0  0
  6 30  1  0  0  0  0
  6 32  1  0  0  0  0
  6 33  1  0  0  0  0
  7  8  1  0  0  0  0
  7 10  1  0  0  0  0
  7 11  1  0  0  0  0
  7 34  1  0  0  0  0
  8 12  1  0  0  0  0
  8 15  1  0  0  0  0
  8 35  1  0  0  0  0
  9 10  1  0  0  0  0
  9 14  1  0  0  0  0
  9 36  1  0  0  0  0
 10 37  1  0  0  0  0
 10 38  1  0  0  0  0
 11 13  1  0  0  0  0
 11 39  1  0  0  0  0
 11 40  1  0  0  0  0
 12 41  1  0  0  0  0
 12 42  1  0  0  0  0
 13 43  1  0  0  0  0
 13 44  1  0  0  0  0
 14 45  1  0  0  0  0
 14 46  1  0  0  0  0
 15 16  2  0  0  0  0
 16 17  1  0  0  0  0
 16 47  1  0  0  0  0
 17 20  1  0  0  0  0
 18 21  1  0  0  0  0
 18 49  1  0  0  0  0
 18 50  1  0  0  0  0
 19 51  1  0  0  0  0
 19 52  1  0  0  0  0
 19 53  1  0  0  0  0
 20 22  2  0  0  0  0
 20 23  1  0  0  0  0
 21 24  2  0  0  0  0
 21 25  1  0  0  0  0
 22 26  1  0  0  0  0
 22 54  1  0  0  0  0
 23 27  2  0  0  0  0
 23 55  1  0  0  0  0
 24 28  1  0  0  0  0
 24 56  1  0  0  0  0
 25 29  2  0  0  0  0
 25 57  1  0  0  0  0
 26 31  2  0  0  0  0
 26 58  1  0  0  0  0
 27 31  1  0  0  0  0
 27 59  1  0  0  0  0
 28 30  2  0  0  0  0
 28 60  1  0  0  0  0
 29 30  1  0  0  0  0
 29 61  1  0  0  0  0
 32 62  1  0  0  0  0
 32 63  1  0  0  0  0
 32 64  1  0  0  0  0
 33 65  1  0  0  0  0
 33 66  1  0  0  0  0
 33 67  1  0  0  0  0
M  END
> <PUBCHEM_COMPOUND_CID>
28990967

> <PUBCHEM_CONFORMER_RMSD>
1

> <PUBCHEM_CONFORMER_DIVERSEORDER>
1
46
25
64
23
50
62
15
34
19
39
37
2
38
57
53
8
17
36
14
27
13
60
5
7
3
44
59
58
48
18
24
12
35
9
56
51
42
32
33
6
31
54
28
49
41
52
65
30
10
47
22
40
43
20
29
21
61
4
63
16
45
11
55
26

> <PUBCHEM_MMFF94_PARTIAL_CHARGES>
40
1 -0.19
12 0.27
13 0.27
14 0.27
15 -0.33
16 -0.15
17 0.23
18 0.41
19 0.26
2 -0.81
20 0.05
21 -0.14
22 -0.15
23 -0.15
24 -0.15
25 -0.15
26 -0.15
27 -0.15
28 -0.15
29 -0.15
3 0.31
30 0.1
31 0.19
32 0.37
33 0.37
4 -0.9
47 0.15
48 0.36
5 -0.71
54 0.15
55 0.15
56 0.15
57 0.15
58 0.15
59 0.15
6 -0.84
60 0.15
61 0.15
8 0.18
9 0.27

> <PUBCHEM_EFFECTIVE_ROTOR_COUNT>
8.2

> <PUBCHEM_PHARMACOPHORE_FEATURES>
9
1 2 cation
1 4 cation
1 4 donor
1 5 acceptor
1 6 cation
5 3 5 15 16 17 rings
6 20 22 23 26 27 31 rings
6 21 24 25 28 29 30 rings
8 2 7 8 9 10 11 12 13 rings

> <PUBCHEM_HEAVY_ATOM_COUNT>
33

> <PUBCHEM_ATOM_DEF_STEREO_COUNT>
3

> <PUBCHEM_ATOM_UDEF_STEREO_COUNT>
0

> <PUBCHEM_BOND_DEF_STEREO_COUNT>
0

> <PUBCHEM_BOND_UDEF_STEREO_COUNT>
0

> <PUBCHEM_ISOTOPIC_ATOM_COUNT>
0

> <PUBCHEM_COMPONENT_COUNT>
1

> <PUBCHEM_CACTVS_TAUTO_COUNT>
1

> <PUBCHEM_CONFORMER_ID>
01BA5DF700000001

> <PUBCHEM_MMFF94_ENERGY>
93.6827

> <PUBCHEM_FEATURE_SELFOVERLAP>
45.672

> <PUBCHEM_SHAPE_FINGERPRINT>
10439779 11 18270111447992260032
10864689 126 17619349801962480948
11513181 2 18200878370445259246
12156800 1 16767928760414719460
13122387 1 18265895748491153837
14117953 113 18341327783044444775
14394314 77 18413112775081860545
14725015 67 18262231106479746673
15001296 14 18335983172252946744
150020 26 17901396906386127113
15297060 5 17840586994541524584
15320467 1 18411136982523891340
15721738 15 15377664236822619436
161222 619 17411852351301922184
17627616 140 18118969345284846565
18336668 15 18187650159057628876
19930381 70 18410292553862885257
20567600 299 18198623439832237256
20721686 56 18335702766649110034
20764821 26 18337394816249790908
20775530 9 18335419023988150249
21033648 29 17987221262335700131
21344244 246 18195795492264100855
21860390 5 18343308097590702510
24941158 1 16414911934345754036
25265897 201 17556053425279724191
3052486 1 18119812400779878226
338550 245 18334861589226365780
463206 1 18339366369436700553
469060 322 18194700185029201011
513532 50 17917157195096023534
6433294 58 18411419514347698808
653340 110 18195521494282022840
9543594 6 18409729534995230728
9961470 85 18270387429995748009

> <PUBCHEM_SHAPE_MULTIPOLES>
646.95
10.72
6.37
1.31
0.03
1.87
0.01
-3.07
0.61
1.3
-0.61
0.41
0.24
-0.49

> <PUBCHEM_SHAPE_SELFOVERLAP>
1397.225

> <PUBCHEM_SHAPE_VOLUME>
359.6

> <PUBCHEM_COORDINATE_TYPE>
2
5
10

$$$$
