38027975
  -OEChem-12032416253D

 74 76  0     1  0  0  0  0  0999 V2000
    2.9255   -3.1289   -0.6230 O   0  0  0  0  0  0  0  0  0  0  0  0
    0.4550    3.3334    2.0756 O   0  0  0  0  0  0  0  0  0  0  0  0
   -5.0520   -0.0703   -1.8557 O   0  0  0  0  0  0  0  0  0  0  0  0
    0.6319   -3.3949   -0.3699 N   0  0  0  0  0  0  0  0  0  0  0  0
    0.9677    3.0200   -0.1660 N   0  0  0  0  0  0  0  0  0  0  0  0
   -1.5348   -4.6359    1.0349 N   0  0  0  0  0  0  0  0  0  0  0  0
   -5.2295    1.3774   -0.0033 N   0  0  0  0  0  0  0  0  0  0  0  0
    3.1341    1.0307    0.4613 C   0  0  1  0  0  0  0  0  0  0  0  0
    3.2456    2.2237   -0.5208 C   0  0  1  0  0  0  0  0  0  0  0  0
    3.6809   -0.2503   -0.1870 C   0  0  0  0  0  0  0  0  0  0  0  0
    2.9313   -0.6132   -1.4828 C   0  0  2  0  0  0  0  0  0  0  0  0
    3.8741    1.3040    1.7744 C   0  0  0  0  0  0  0  0  0  0  0  0
    2.7650    0.5874   -2.3921 C   0  0  0  0  0  0  0  0  0  0  0  0
    2.9225    1.8470   -1.9477 C   0  0  0  0  0  0  0  0  0  0  0  0
    1.5764   -1.2600   -1.1746 C   0  0  0  0  0  0  0  0  0  0  0  0
    2.3470    3.3859   -0.0835 C   0  0  0  0  0  0  0  0  0  0  0  0
    3.2881    0.4592    2.9012 C   0  0  0  0  0  0  0  0  0  0  0  0
    5.3655    1.0292    1.6118 C   0  0  0  0  0  0  0  0  0  0  0  0
    2.4579    0.3054   -3.8365 C   0  0  0  0  0  0  0  0  0  0  0  0
    1.7803   -2.6769   -0.7004 C   0  0  0  0  0  0  0  0  0  0  0  0
    0.7458   -4.7739    0.1027 C   0  0  0  0  0  0  0  0  0  0  0  0
   -0.7445   -2.9345   -0.5758 C   0  0  0  0  0  0  0  0  0  0  0  0
   -0.1443   -5.0180    1.3208 C   0  0  0  0  0  0  0  0  0  0  0  0
   -1.6102   -3.2181    0.6532 C   0  0  0  0  0  0  0  0  0  0  0  0
    0.1150    3.0220    0.9373 C   0  0  0  0  0  0  0  0  0  0  0  0
   -2.3888   -4.9025    2.1917 C   0  0  0  0  0  0  0  0  0  0  0  0
   -1.2849    2.5901    0.6906 C   0  0  0  0  0  0  0  0  0  0  0  0
   -2.3138    3.0641    1.5047 C   0  0  0  0  0  0  0  0  0  0  0  0
   -1.5711    1.7118   -0.3546 C   0  0  0  0  0  0  0  0  0  0  0  0
   -3.6284    2.6596    1.2738 C   0  0  0  0  0  0  0  0  0  0  0  0
   -2.8858    1.3071   -0.5855 C   0  0  0  0  0  0  0  0  0  0  0  0
   -3.9145    1.7810    0.2287 C   0  0  0  0  0  0  0  0  0  0  0  0
   -5.7061    0.5095   -0.9950 C   0  0  0  0  0  0  0  0  0  0  0  0
   -7.2010    0.3288   -0.9087 C   0  0  0  0  0  0  0  0  0  0  0  0
    2.0760    0.8660    0.6956 H   0  0  0  0  0  0  0  0  0  0  0  0
    4.2778    2.5960   -0.5297 H   0  0  0  0  0  0  0  0  0  0  0  0
    3.6585   -1.0840    0.5208 H   0  0  0  0  0  0  0  0  0  0  0  0
    4.7303   -0.1173   -0.4807 H   0  0  0  0  0  0  0  0  0  0  0  0
    3.5669   -1.3260   -2.0273 H   0  0  0  0  0  0  0  0  0  0  0  0
    3.7530    2.3511    2.0702 H   0  0  0  0  0  0  0  0  0  0  0  0
    2.8373    2.6687   -2.6562 H   0  0  0  0  0  0  0  0  0  0  0  0
    0.9600   -1.3094   -2.0789 H   0  0  0  0  0  0  0  0  0  0  0  0
    1.0256   -0.6965   -0.4156 H   0  0  0  0  0  0  0  0  0  0  0  0
    2.4842    4.2423   -0.7551 H   0  0  0  0  0  0  0  0  0  0  0  0
    2.5943    3.7377    0.9216 H   0  0  0  0  0  0  0  0  0  0  0  0
    3.3948   -0.6141    2.7164 H   0  0  0  0  0  0  0  0  0  0  0  0
    2.2232    0.6754    3.0393 H   0  0  0  0  0  0  0  0  0  0  0  0
    3.7933    0.6813    3.8477 H   0  0  0  0  0  0  0  0  0  0  0  0
    5.6030   -0.0383    1.5547 H   0  0  0  0  0  0  0  0  0  0  0  0
    5.8985    1.4054    2.4939 H   0  0  0  0  0  0  0  0  0  0  0  0
    5.7984    1.5424    0.7481 H   0  0  0  0  0  0  0  0  0  0  0  0
    3.2100   -0.3676   -4.2610 H   0  0  0  0  0  0  0  0  0  0  0  0
    2.4576    1.2182   -4.4420 H   0  0  0  0  0  0  0  0  0  0  0  0
    1.4736   -0.1587   -3.9456 H   0  0  0  0  0  0  0  0  0  0  0  0
    0.5914    2.8393   -1.0909 H   0  0  0  0  0  0  0  0  0  0  0  0
    1.7851   -5.0127    0.3509 H   0  0  0  0  0  0  0  0  0  0  0  0
    0.4498   -5.4263   -0.7280 H   0  0  0  0  0  0  0  0  0  0  0  0
   -1.1332   -3.4722   -1.4494 H   0  0  0  0  0  0  0  0  0  0  0  0
   -0.7911   -1.8691   -0.8082 H   0  0  0  0  0  0  0  0  0  0  0  0
   -0.0930   -6.0824    1.5792 H   0  0  0  0  0  0  0  0  0  0  0  0
    0.2433   -4.4506    2.1776 H   0  0  0  0  0  0  0  0  0  0  0  0
   -1.2852   -2.5773    1.4838 H   0  0  0  0  0  0  0  0  0  0  0  0
   -2.6464   -2.9486    0.4152 H   0  0  0  0  0  0  0  0  0  0  0  0
   -3.4321   -4.6574    1.9636 H   0  0  0  0  0  0  0  0  0  0  0  0
   -2.0843   -4.3276    3.0738 H   0  0  0  0  0  0  0  0  0  0  0  0
   -2.3656   -5.9673    2.4491 H   0  0  0  0  0  0  0  0  0  0  0  0
   -2.1111    3.7526    2.3208 H   0  0  0  0  0  0  0  0  0  0  0  0
   -0.7940    1.2984   -0.9912 H   0  0  0  0  0  0  0  0  0  0  0  0
   -4.4204    3.0377    1.9153 H   0  0  0  0  0  0  0  0  0  0  0  0
   -3.0281    0.6197   -1.4077 H   0  0  0  0  0  0  0  0  0  0  0  0
   -5.9220    1.7675    0.6327 H   0  0  0  0  0  0  0  0  0  0  0  0
   -7.4641   -0.1164    0.0549 H   0  0  0  0  0  0  0  0  0  0  0  0
   -7.5414   -0.3319   -1.7107 H   0  0  0  0  0  0  0  0  0  0  0  0
   -7.6985    1.2972   -1.0122 H   0  0  0  0  0  0  0  0  0  0  0  0
  1 20  2  0  0  0  0
  2 25  2  0  0  0  0
  3 33  2  0  0  0  0
  4 20  1  0  0  0  0
  4 21  1  0  0  0  0
  4 22  1  0  0  0  0
  5 16  1  0  0  0  0
  5 25  1  0  0  0  0
  5 55  1  0  0  0  0
  6 23  1  0  0  0  0
  6 24  1  0  0  0  0
  6 26  1  0  0  0  0
  7 32  1  0  0  0  0
  7 33  1  0  0  0  0
  7 71  1  0  0  0  0
  8  9  1  0  0  0  0
  8 10  1  0  0  0  0
  8 12  1  0  0  0  0
  8 35  1  0  0  0  0
  9 14  1  0  0  0  0
  9 16  1  0  0  0  0
  9 36  1  0  0  0  0
 10 11  1  0  0  0  0
 10 37  1  0  0  0  0
 10 38  1  0  0  0  0
 11 13  1  0  0  0  0
 11 15  1  0  0  0  0
 11 39  1  0  0  0  0
 12 17  1  0  0  0  0
 12 18  1  0  0  0  0
 12 40  1  0  0  0  0
 13 14  2  0  0  0  0
 13 19  1  0  0  0  0
 14 41  1  0  0  0  0
 15 20  1  0  0  0  0
 15 42  1  0  0  0  0
 15 43  1  0  0  0  0
 16 44  1  0  0  0  0
 16 45  1  0  0  0  0
 17 46  1  0  0  0  0
 17 47  1  0  0  0  0
 17 48  1  0  0  0  0
 18 49  1  0  0  0  0
 18 50  1  0  0  0  0
 18 51  1  0  0  0  0
 19 52  1  0  0  0  0
 19 53  1  0  0  0  0
 19 54  1  0  0  0  0
 21 23  1  0  0  0  0
 21 56  1  0  0  0  0
 21 57  1  0  0  0  0
 22 24  1  0  0  0  0
 22 58  1  0  0  0  0
 22 59  1  0  0  0  0
 23 60  1  0  0  0  0
 23 61  1  0  0  0  0
 24 62  1  0  0  0  0
 24 63  1  0  0  0  0
 25 27  1  0  0  0  0
 26 64  1  0  0  0  0
 26 65  1  0  0  0  0
 26 66  1  0  0  0  0
 27 28  2  0  0  0  0
 27 29  1  0  0  0  0
 28 30  1  0  0  0  0
 28 67  1  0  0  0  0
 29 31  2  0  0  0  0
 29 68  1  0  0  0  0
 30 32  2  0  0  0  0
 30 69  1  0  0  0  0
 31 32  1  0  0  0  0
 31 70  1  0  0  0  0
 33 34  1  0  0  0  0
 34 72  1  0  0  0  0
 34 73  1  0  0  0  0
 34 74  1  0  0  0  0
M  END
> <PUBCHEM_COMPOUND_CID>
38027975

> <PUBCHEM_CONFORMER_RMSD>
1.2

> <PUBCHEM_CONFORMER_DIVERSEORDER>
1
127
30
136
89
60
117
9
102
67
90
148
8
74
156
2
82
19
86
147
3
135
91
6
15
37
146
128
38
145
47
94
42
131
139
61
25
95
20
116
87
126
161
18
157
88
34
76
29
99
69
21
109
24
101
97
62
93
129
59
40
64
123
112
130
132
107
35
11
68
22
84
72
26
50
44
119
16
41
118
79
122
141
55
160
96
115
162
106
125
166
163
140
78
71
165
28
70
110
63
103
5
164
12
142
7
27
43
81
92
57
154
155
124
98
32
111
58
53
4
48
143
134
36
144
17
105
114
23
39
137
85
45
133
138
80
65
100
14
56
120
152
52
49
150
10
66
33
149
51
73
121
151
13
31
159
46
77
83
153
158
54
113
104
75
108

> <PUBCHEM_MMFF94_PARTIAL_CHARGES>
36
1 -0.57
11 0.14
13 -0.28
14 -0.29
15 0.06
16 0.3
19 0.14
2 -0.57
20 0.57
21 0.3
22 0.3
23 0.27
24 0.27
25 0.54
26 0.27
27 0.09
28 -0.15
29 -0.15
3 -0.57
30 -0.15
31 -0.15
32 0.12
33 0.57
34 0.06
4 -0.66
41 0.15
5 -0.73
55 0.37
6 -0.81
67 0.15
68 0.15
69 0.15
7 -0.55
70 0.15
71 0.37
9 0.14

> <PUBCHEM_EFFECTIVE_ROTOR_COUNT>
12

> <PUBCHEM_PHARMACOPHORE_FEATURES>
10
1 1 acceptor
1 2 acceptor
1 3 acceptor
1 5 donor
1 6 cation
1 7 donor
3 12 17 18 hydrophobe
6 27 28 29 30 31 32 rings
6 4 6 21 22 23 24 rings
6 8 9 10 11 13 14 rings

> <PUBCHEM_HEAVY_ATOM_COUNT>
34

> <PUBCHEM_ATOM_DEF_STEREO_COUNT>
3

> <PUBCHEM_ATOM_UDEF_STEREO_COUNT>
0

> <PUBCHEM_BOND_DEF_STEREO_COUNT>
0

> <PUBCHEM_BOND_UDEF_STEREO_COUNT>
0

> <PUBCHEM_ISOTOPIC_ATOM_COUNT>
0

> <PUBCHEM_COMPONENT_COUNT>
1

> <PUBCHEM_CACTVS_TAUTO_COUNT>
7

> <PUBCHEM_CONFORMER_ID>
024442C700000001

> <PUBCHEM_MMFF94_ENERGY>
81.9106

> <PUBCHEM_FEATURE_SELFOVERLAP>
50.746

> <PUBCHEM_SHAPE_FINGERPRINT>
10316853 100 18338797922753139691
10928967 22 17694245286676928425
12788726 201 17757280640647947954
1361 2 18410291372462231033
13726171 33 17904221547431858453
14863182 85 18264212422475972656
15475509 84 17903913701982957514
16114785 44 16911399927683755368
161222 619 17414707980066779993
19315092 285 17772738386559225657
19319366 153 18409721847294214215
20764821 26 18339372898003112491
20775530 9 17256260245573769660
21304304 249 18411128114007145424
463206 1 17260199795609568850
57527452 28 18042111107956238416
57527573 199 18199733886467925692
6609424 69 17402913600820079535
66674814 147 18335985263828030465
86090 222 18342459287820227233

> <PUBCHEM_SHAPE_MULTIPOLES>
662.17
10.5
7.22
2.61
14.85
11.2
-0.82
-6.17
-1.69
2.54
4.06
-2.39
-0.31
1.11

> <PUBCHEM_SHAPE_SELFOVERLAP>
1368.812

> <PUBCHEM_SHAPE_VOLUME>
376.9

> <PUBCHEM_COORDINATE_TYPE>
2
5
10

$$$$
