51137477
  -OEChem-12032416243D

 53 56  0     1  0  0  0  0  0999 V2000
    2.0038   -1.0377    0.0331 O   0  0  0  0  0  0  0  0  0  0  0  0
    5.1612    1.4834   -1.0940 O   0  0  0  0  0  0  0  0  0  0  0  0
   -5.6026    2.2797   -2.0124 O   0  0  0  0  0  0  0  0  0  0  0  0
   -0.9811   -2.8742    0.5843 N   0  0  2  0  0  0  0  0  0  0  0  0
    3.0482   -2.0115   -1.6890 N   0  0  0  0  0  0  0  0  0  0  0  0
    3.6937   -0.8199   -1.4165 N   0  0  0  0  0  0  0  0  0  0  0  0
   -4.8805    2.1588    0.2287 N   0  0  0  0  0  0  0  0  0  0  0  0
    1.0321   -3.1835   -0.6396 C   0  0  1  0  0  0  0  0  0  0  0  0
    1.1097   -3.8568    0.7386 C   0  0  0  0  0  0  0  0  0  0  0  0
   -0.4268   -2.7078   -0.7630 C   0  0  0  0  0  0  0  0  0  0  0  0
   -0.3428   -4.0704    1.1300 C   0  0  0  0  0  0  0  0  0  0  0  0
   -2.4331   -2.9661    0.5840 C   0  0  0  0  0  0  0  0  0  0  0  0
    2.0693   -2.0972   -0.8188 C   0  0  0  0  0  0  0  0  0  0  0  0
   -3.0806   -1.6102    0.4901 C   0  0  0  0  0  0  0  0  0  0  0  0
   -3.1283   -0.7809    1.6106 C   0  0  0  0  0  0  0  0  0  0  0  0
   -3.6329   -1.1831   -0.7175 C   0  0  0  0  0  0  0  0  0  0  0  0
    3.0504   -0.2857   -0.4047 C   0  0  0  0  0  0  0  0  0  0  0  0
   -3.7283    0.4753    1.5237 C   0  0  0  0  0  0  0  0  0  0  0  0
   -4.2328    0.0730   -0.8045 C   0  0  0  0  0  0  0  0  0  0  0  0
    3.2761    0.9444    0.2973 C   0  0  0  0  0  0  0  0  0  0  0  0
   -4.2805    0.9023    0.3160 C   0  0  0  0  0  0  0  0  0  0  0  0
    4.3222    1.7930   -0.0644 C   0  0  0  0  0  0  0  0  0  0  0  0
    2.4342    1.2868    1.3553 C   0  0  0  0  0  0  0  0  0  0  0  0
    4.5265    2.9843    0.6319 C   0  0  0  0  0  0  0  0  0  0  0  0
    2.6385    2.4782    2.0518 C   0  0  0  0  0  0  0  0  0  0  0  0
    3.6846    3.3269    1.6901 C   0  0  0  0  0  0  0  0  0  0  0  0
   -5.4829    2.7543   -0.8876 C   0  0  0  0  0  0  0  0  0  0  0  0
   -6.0163    4.1284   -0.5685 C   0  0  0  0  0  0  0  0  0  0  0  0
    6.1992    2.4164   -1.3849 C   0  0  0  0  0  0  0  0  0  0  0  0
    1.2146   -3.9421   -1.4126 H   0  0  0  0  0  0  0  0  0  0  0  0
    1.6609   -4.8022    0.6964 H   0  0  0  0  0  0  0  0  0  0  0  0
    1.6081   -3.2167    1.4775 H   0  0  0  0  0  0  0  0  0  0  0  0
   -0.9429   -3.3472   -1.4914 H   0  0  0  0  0  0  0  0  0  0  0  0
   -0.5057   -1.6701   -1.1046 H   0  0  0  0  0  0  0  0  0  0  0  0
   -0.7311   -4.9868    0.6677 H   0  0  0  0  0  0  0  0  0  0  0  0
   -0.4582   -4.1441    2.2159 H   0  0  0  0  0  0  0  0  0  0  0  0
   -2.8071   -3.6378   -0.2005 H   0  0  0  0  0  0  0  0  0  0  0  0
   -2.7778   -3.4133    1.5274 H   0  0  0  0  0  0  0  0  0  0  0  0
   -2.7013   -1.1021    2.5571 H   0  0  0  0  0  0  0  0  0  0  0  0
   -3.6001   -1.8198   -1.5978 H   0  0  0  0  0  0  0  0  0  0  0  0
   -3.7581    1.1111    2.4049 H   0  0  0  0  0  0  0  0  0  0  0  0
   -4.6373    0.3339   -1.7725 H   0  0  0  0  0  0  0  0  0  0  0  0
    1.6077    0.6543    1.6695 H   0  0  0  0  0  0  0  0  0  0  0  0
   -4.8747    2.7034    1.0887 H   0  0  0  0  0  0  0  0  0  0  0  0
    5.3157    3.6945    0.4114 H   0  0  0  0  0  0  0  0  0  0  0  0
    1.9831    2.7453    2.8757 H   0  0  0  0  0  0  0  0  0  0  0  0
    3.8425    4.2543    2.2332 H   0  0  0  0  0  0  0  0  0  0  0  0
   -6.4523    4.5746   -1.4665 H   0  0  0  0  0  0  0  0  0  0  0  0
   -6.7880    4.0549    0.2029 H   0  0  0  0  0  0  0  0  0  0  0  0
   -5.2040    4.7689   -0.2134 H   0  0  0  0  0  0  0  0  0  0  0  0
    5.7968    3.3817   -1.7108 H   0  0  0  0  0  0  0  0  0  0  0  0
    6.9017    2.5144   -0.5502 H   0  0  0  0  0  0  0  0  0  0  0  0
    6.7674    2.0111   -2.2289 H   0  0  0  0  0  0  0  0  0  0  0  0
  1 13  1  0  0  0  0
  1 17  1  0  0  0  0
  2 22  1  0  0  0  0
  2 29  1  0  0  0  0
  3 27  2  0  0  0  0
  4 10  1  0  0  0  0
  4 11  1  0  0  0  0
  4 12  1  0  0  0  0
  5  6  1  0  0  0  0
  5 13  2  0  0  0  0
  6 17  2  0  0  0  0
  7 21  1  0  0  0  0
  7 27  1  0  0  0  0
  7 44  1  0  0  0  0
  8  9  1  0  0  0  0
  8 10  1  0  0  0  0
  8 13  1  0  0  0  0
  8 30  1  0  0  0  0
  9 11  1  0  0  0  0
  9 31  1  0  0  0  0
  9 32  1  0  0  0  0
 10 33  1  0  0  0  0
 10 34  1  0  0  0  0
 11 35  1  0  0  0  0
 11 36  1  0  0  0  0
 12 14  1  0  0  0  0
 12 37  1  0  0  0  0
 12 38  1  0  0  0  0
 14 15  2  0  0  0  0
 14 16  1  0  0  0  0
 15 18  1  0  0  0  0
 15 39  1  0  0  0  0
 16 19  2  0  0  0  0
 16 40  1  0  0  0  0
 17 20  1  0  0  0  0
 18 21  2  0  0  0  0
 18 41  1  0  0  0  0
 19 21  1  0  0  0  0
 19 42  1  0  0  0  0
 20 22  1  0  0  0  0
 20 23  2  0  0  0  0
 22 24  2  0  0  0  0
 23 25  1  0  0  0  0
 23 43  1  0  0  0  0
 24 26  1  0  0  0  0
 24 45  1  0  0  0  0
 25 26  2  0  0  0  0
 25 46  1  0  0  0  0
 26 47  1  0  0  0  0
 27 28  1  0  0  0  0
 28 48  1  0  0  0  0
 28 49  1  0  0  0  0
 28 50  1  0  0  0  0
 29 51  1  0  0  0  0
 29 52  1  0  0  0  0
 29 53  1  0  0  0  0
M  END
> <PUBCHEM_COMPOUND_CID>
51137477

> <PUBCHEM_CONFORMER_RMSD>
1.2

> <PUBCHEM_CONFORMER_DIVERSEORDER>
13
40
29
61
81
41
64
3
53
8
52
59
51
43
48
69
42
86
6
49
38
66
75
15
70
88
7
87
46
21
84
30
85
4
5
57
50
35
68
54
39
20
83
71
47
45
9
65
37
44
58
73
27
62
78
24
67
17
55
91
76
12
33
34
79
60
92
77
63
82
22
25
16
26
74
10
31
56
89
72
19
1
14
36
23
11
32
28
2
80
18
90

> <PUBCHEM_MMFF94_PARTIAL_CHARGES>
37
1 -0.28
10 0.27
11 0.27
12 0.41
13 0.3
14 -0.14
15 -0.15
16 -0.15
17 0.43
18 -0.15
19 -0.15
2 -0.36
20 0.05
21 0.12
22 0.08
23 -0.15
24 -0.15
25 -0.15
26 -0.15
27 0.57
28 0.06
29 0.28
3 -0.57
39 0.15
4 -0.81
40 0.15
41 0.15
42 0.15
43 0.15
44 0.37
45 0.15
46 0.15
47 0.15
5 -0.34
6 -0.34
7 -0.55
8 0.18

> <PUBCHEM_EFFECTIVE_ROTOR_COUNT>
8

> <PUBCHEM_PHARMACOPHORE_FEATURES>
8
1 2 acceptor
1 3 acceptor
1 4 cation
1 7 donor
5 1 5 6 13 17 rings
5 4 8 9 10 11 rings
6 14 15 16 18 19 21 rings
6 20 22 23 24 25 26 rings

> <PUBCHEM_HEAVY_ATOM_COUNT>
29

> <PUBCHEM_ATOM_DEF_STEREO_COUNT>
1

> <PUBCHEM_ATOM_UDEF_STEREO_COUNT>
0

> <PUBCHEM_BOND_DEF_STEREO_COUNT>
0

> <PUBCHEM_BOND_UDEF_STEREO_COUNT>
0

> <PUBCHEM_ISOTOPIC_ATOM_COUNT>
0

> <PUBCHEM_COMPONENT_COUNT>
1

> <PUBCHEM_CACTVS_TAUTO_COUNT>
3

> <PUBCHEM_CONFORMER_ID>
030C4BC50000000D

> <PUBCHEM_MMFF94_ENERGY>
80.7617

> <PUBCHEM_FEATURE_SELFOVERLAP>
40.597

> <PUBCHEM_SHAPE_FINGERPRINT>
10439779 11 17905310845726910851
10675989 125 18268145345060989537
10928967 22 10591499337764764181
11059845 2 18119781794985112552
11331351 85 17111829489451895619
12104220 4 17385735676865764508
12717326 135 18268127908179634912
12769317 202 18341049610111769803
133061 13 17769356555091364760
13402501 40 17841160157611067330
13944108 23 17978794502040930421
13965767 371 17894902993149553070
14223995 32 18341041987209932184
14347329 18 18265337398980534552
14428016 6 18271796892476266169
14468879 13 18260832596767382195
14848178 96 18411982429766749707
15274700 34 12251906976493239217
15721738 15 18198891531665636545
15961568 22 16754654812062422272
16067689 391 17056159205981864724
16067690 210 17398650785379388312
19246450 95 17769906269047259200
20398071 114 18341332270641697259
21033648 144 17125932294046244358
21049683 118 17241611607699029723
21279426 13 18128837364325194166
21388113 180 18335981982979821149
22122407 14 17762910866643901905
2838139 119 18271237326450672190
376196 1 18411699885180490175
4371632 12 18343007896957364769
437795 139 13038912101290851724
4573279 150 9798573428582281749
508706 21 18124316261867367626
550186 83 16226903133386404773
56633871 153 8862665742063546623
6086070 43 18269272357348673599
6475588 51 16752686690381842308
9849439 229 18260550009214897199
9980921 52 15049514158684564300

> <PUBCHEM_SHAPE_MULTIPOLES>
559.27
14.08
6.09
1.72
4.5
1.09
0.15
-19.83
-4.63
1.95
0.5
-0.49
-0.64
3.18

> <PUBCHEM_SHAPE_SELFOVERLAP>
1208.696

> <PUBCHEM_SHAPE_VOLUME>
308.6

> <PUBCHEM_COORDINATE_TYPE>
2
5
10

$$$$
