23757053
  -OEChem-12032416173D

 78 82  0     1  0  0  0  0  0999 V2000
    3.4233   -1.0091    2.8124 S   0  0  0  0  0  0  0  0  0  0  0  0
    6.6155   -1.7572    0.9816 S   0  0  0  0  0  0  0  0  0  0  0  0
   -0.5002    1.9979   -1.8476 O   0  0  0  0  0  0  0  0  0  0  0  0
   -5.5028    2.7620   -0.1149 O   0  0  0  0  0  0  0  0  0  0  0  0
   -4.4454   -4.4220   -0.2021 O   0  0  0  0  0  0  0  0  0  0  0  0
    4.0074    0.6226    0.8934 N   0  0  0  0  0  0  0  0  0  0  0  0
   -4.8714    0.8987   -1.3434 N   0  0  0  0  0  0  0  0  0  0  0  0
   -5.2984   -1.7067   -0.1747 N   0  0  0  0  0  0  0  0  0  0  0  0
   -0.1572    0.7097    1.7429 C   0  0  1  0  0  0  0  0  0  0  0  0
    0.2313    0.9694    0.2340 C   0  0  1  0  0  0  0  0  0  0  0  0
   -0.7612    1.9552   -0.4453 C   0  0  2  0  0  0  0  0  0  0  0  0
   -2.2367    1.5356   -0.2671 C   0  0  1  0  0  0  0  0  0  0  0  0
   -1.6382    0.2728    1.8316 C   0  0  0  0  0  0  0  0  0  0  0  0
    1.7486    1.3952    0.0786 C   0  0  1  0  0  0  0  0  0  0  0  0
   -2.5958    1.2705    1.1949 C   0  0  0  0  0  0  0  0  0  0  0  0
    0.7083   -0.4546    2.3182 C   0  0  0  0  0  0  0  0  0  0  0  0
    0.0494    1.9706    2.6222 C   0  0  0  0  0  0  0  0  0  0  0  0
   -3.1997    2.5766   -0.8509 C   0  0  2  0  0  0  0  0  0  0  0  0
    2.6277    0.5644    0.9823 C   0  0  0  0  0  0  0  0  0  0  0  0
    2.1437   -0.2502    1.9850 C   0  0  0  0  0  0  0  0  0  0  0  0
    2.2571    1.3113   -1.3682 C   0  0  0  0  0  0  0  0  0  0  0  0
   -3.0034    3.9218   -0.1599 C   0  0  0  0  0  0  0  0  0  0  0  0
   -4.6470    2.1146   -0.7142 C   0  0  0  0  0  0  0  0  0  0  0  0
    4.5301   -0.1734    1.8007 C   0  0  0  0  0  0  0  0  0  0  0  0
    5.9813   -0.3802    1.9967 C   0  0  0  0  0  0  0  0  0  0  0  0
   -6.1640    0.2541   -1.3588 C   0  0  0  0  0  0  0  0  0  0  0  0
   -6.3314   -0.6730   -0.1640 C   0  0  0  0  0  0  0  0  0  0  0  0
    6.3122   -1.1388   -0.6682 C   0  0  0  0  0  0  0  0  0  0  0  0
   -5.3978   -2.5311   -1.3871 C   0  0  0  0  0  0  0  0  0  0  0  0
   -5.3970   -2.5555    1.0207 C   0  0  0  0  0  0  0  0  0  0  0  0
   -4.3187   -3.6100   -1.3700 C   0  0  0  0  0  0  0  0  0  0  0  0
   -4.3171   -3.6328    0.9811 C   0  0  0  0  0  0  0  0  0  0  0  0
    6.9086    0.0491   -1.0825 C   0  0  0  0  0  0  0  0  0  0  0  0
    5.4814   -1.8480   -1.5313 C   0  0  0  0  0  0  0  0  0  0  0  0
    6.6720    0.5316   -2.3697 C   0  0  0  0  0  0  0  0  0  0  0  0
    5.2451   -1.3655   -2.8186 C   0  0  0  0  0  0  0  0  0  0  0  0
    5.8404   -0.1756   -3.2377 C   0  0  0  0  0  0  0  0  0  0  0  0
    0.1307    0.0055   -0.2908 H   0  0  0  0  0  0  0  0  0  0  0  0
   -0.5615    2.9522   -0.0488 H   0  0  0  0  0  0  0  0  0  0  0  0
   -2.3616    0.5910   -0.8128 H   0  0  0  0  0  0  0  0  0  0  0  0
   -1.9253    0.1170    2.8794 H   0  0  0  0  0  0  0  0  0  0  0  0
   -1.7676   -0.6973    1.3325 H   0  0  0  0  0  0  0  0  0  0  0  0
    1.8519    2.4385    0.4056 H   0  0  0  0  0  0  0  0  0  0  0  0
   -2.5905    2.1802    1.7994 H   0  0  0  0  0  0  0  0  0  0  0  0
   -3.6065    0.8548    1.2793 H   0  0  0  0  0  0  0  0  0  0  0  0
    0.3908   -1.4103    1.8806 H   0  0  0  0  0  0  0  0  0  0  0  0
    0.5648   -0.5331    3.4030 H   0  0  0  0  0  0  0  0  0  0  0  0
    1.1015    2.2609    2.6987 H   0  0  0  0  0  0  0  0  0  0  0  0
   -0.4917    2.8399    2.2384 H   0  0  0  0  0  0  0  0  0  0  0  0
   -0.3053    1.7909    3.6440 H   0  0  0  0  0  0  0  0  0  0  0  0
   -3.0087    2.7061   -1.9240 H   0  0  0  0  0  0  0  0  0  0  0  0
    3.3420    1.4568   -1.4227 H   0  0  0  0  0  0  0  0  0  0  0  0
    2.0354    0.3347   -1.8120 H   0  0  0  0  0  0  0  0  0  0  0  0
    1.8224    2.0910   -1.9975 H   0  0  0  0  0  0  0  0  0  0  0  0
   -0.6275    1.1027   -2.2053 H   0  0  0  0  0  0  0  0  0  0  0  0
   -2.0101    4.3471   -0.3181 H   0  0  0  0  0  0  0  0  0  0  0  0
   -3.7015    4.6520   -0.5904 H   0  0  0  0  0  0  0  0  0  0  0  0
   -3.2203    3.9101    0.9111 H   0  0  0  0  0  0  0  0  0  0  0  0
   -4.1248    0.4516   -1.8653 H   0  0  0  0  0  0  0  0  0  0  0  0
    6.2128   -0.6060    3.0436 H   0  0  0  0  0  0  0  0  0  0  0  0
    6.5296    0.5365    1.7558 H   0  0  0  0  0  0  0  0  0  0  0  0
   -6.3013   -0.2310   -2.3284 H   0  0  0  0  0  0  0  0  0  0  0  0
   -6.9356    1.0317   -1.3028 H   0  0  0  0  0  0  0  0  0  0  0  0
   -7.3374   -1.1115   -0.1782 H   0  0  0  0  0  0  0  0  0  0  0  0
   -6.2471   -0.0825    0.7573 H   0  0  0  0  0  0  0  0  0  0  0  0
   -5.2320   -1.9540   -2.3003 H   0  0  0  0  0  0  0  0  0  0  0  0
   -6.3869   -3.0031   -1.4501 H   0  0  0  0  0  0  0  0  0  0  0  0
   -6.3853   -3.0309    1.0697 H   0  0  0  0  0  0  0  0  0  0  0  0
   -5.2638   -1.9531    1.9267 H   0  0  0  0  0  0  0  0  0  0  0  0
   -3.3118   -3.1762   -1.4065 H   0  0  0  0  0  0  0  0  0  0  0  0
   -4.4295   -4.2630   -2.2417 H   0  0  0  0  0  0  0  0  0  0  0  0
   -3.3107   -3.1983    1.0244 H   0  0  0  0  0  0  0  0  0  0  0  0
   -4.4260   -4.3017    1.8408 H   0  0  0  0  0  0  0  0  0  0  0  0
    7.5676    0.6124   -0.4271 H   0  0  0  0  0  0  0  0  0  0  0  0
    5.0078   -2.7759   -1.2209 H   0  0  0  0  0  0  0  0  0  0  0  0
    7.1366    1.4572   -2.6968 H   0  0  0  0  0  0  0  0  0  0  0  0
    4.5964   -1.9153   -3.4942 H   0  0  0  0  0  0  0  0  0  0  0  0
    5.6557    0.2003   -4.2398 H   0  0  0  0  0  0  0  0  0  0  0  0
  1 20  1  0  0  0  0
  1 24  1  0  0  0  0
  2 25  1  0  0  0  0
  2 28  1  0  0  0  0
  3 11  1  0  0  0  0
  3 55  1  0  0  0  0
  4 23  2  0  0  0  0
  5 31  1  0  0  0  0
  5 32  1  0  0  0  0
  6 19  1  0  0  0  0
  6 24  2  0  0  0  0
  7 23  1  0  0  0  0
  7 26  1  0  0  0  0
  7 59  1  0  0  0  0
  8 27  1  0  0  0  0
  8 29  1  0  0  0  0
  8 30  1  0  0  0  0
  9 10  1  0  0  0  0
  9 13  1  0  0  0  0
  9 16  1  0  0  0  0
  9 17  1  0  0  0  0
 10 11  1  0  0  0  0
 10 14  1  0  0  0  0
 10 38  1  0  0  0  0
 11 12  1  0  0  0  0
 11 39  1  0  0  0  0
 12 15  1  0  0  0  0
 12 18  1  0  0  0  0
 12 40  1  0  0  0  0
 13 15  1  0  0  0  0
 13 41  1  0  0  0  0
 13 42  1  0  0  0  0
 14 19  1  0  0  0  0
 14 21  1  0  0  0  0
 14 43  1  0  0  0  0
 15 44  1  0  0  0  0
 15 45  1  0  0  0  0
 16 20  1  0  0  0  0
 16 46  1  0  0  0  0
 16 47  1  0  0  0  0
 17 48  1  0  0  0  0
 17 49  1  0  0  0  0
 17 50  1  0  0  0  0
 18 22  1  0  0  0  0
 18 23  1  0  0  0  0
 18 51  1  0  0  0  0
 19 20  2  0  0  0  0
 21 52  1  0  0  0  0
 21 53  1  0  0  0  0
 21 54  1  0  0  0  0
 22 56  1  0  0  0  0
 22 57  1  0  0  0  0
 22 58  1  0  0  0  0
 24 25  1  0  0  0  0
 25 60  1  0  0  0  0
 25 61  1  0  0  0  0
 26 27  1  0  0  0  0
 26 62  1  0  0  0  0
 26 63  1  0  0  0  0
 27 64  1  0  0  0  0
 27 65  1  0  0  0  0
 28 33  2  0  0  0  0
 28 34  1  0  0  0  0
 29 31  1  0  0  0  0
 29 66  1  0  0  0  0
 29 67  1  0  0  0  0
 30 32  1  0  0  0  0
 30 68  1  0  0  0  0
 30 69  1  0  0  0  0
 31 70  1  0  0  0  0
 31 71  1  0  0  0  0
 32 72  1  0  0  0  0
 32 73  1  0  0  0  0
 33 35  1  0  0  0  0
 33 74  1  0  0  0  0
 34 36  2  0  0  0  0
 34 75  1  0  0  0  0
 35 37  2  0  0  0  0
 35 76  1  0  0  0  0
 36 37  1  0  0  0  0
 36 77  1  0  0  0  0
 37 78  1  0  0  0  0
M  END
> <PUBCHEM_COMPOUND_CID>
23757053

> <PUBCHEM_CONFORMER_RMSD>
1.2

> <PUBCHEM_CONFORMER_DIVERSEORDER>
25
141
179
92
187
76
150
82
14
85
18
118
172
167
100
8
27
154
19
165
58
143
133
99
43
152
184
48
16
39
114
149
32
55
166
97
56
113
33
74
44
77
88
134
190
112
189
191
173
78
1
164
175
125
34
45
26
151
145
163
87
30
117
91
59
54
60
188
67
80
12
57
4
2
160
49
38
9
53
104
130
31
119
171
36
95
47
153
140
123
105
157
109
81
15
3
13
181
65
127
144
86
161
108
41
10
129
180
137
73
192
23
176
66
131
116
84
107
93
50
11
101
21
178
79
146
106
75
98
135
170
124
20
72
94
63
128
42
162
103
70
5
159
183
122
7
28
132
158
61
169
6
147
62
46
111
185
37
22
174
29
90
121
69
64
155
35
148
186
120
156
24
126
142
89
71
96
168
52
68
182
51
83
110
177
102
115
17
139
136
138
40

> <PUBCHEM_MMFF94_PARTIAL_CHARGES>
36
1 -0.08
11 0.28
14 0.18
16 0.18
18 0.06
19 0.05
2 -0.33
20 -0.14
23 0.57
24 0.2
25 0.41
26 0.3
27 0.27
28 0.1
29 0.27
3 -0.68
30 0.27
31 0.28
32 0.28
33 -0.15
34 -0.15
35 -0.15
36 -0.15
37 -0.15
4 -0.57
5 -0.56
55 0.4
59 0.37
6 -0.57
7 -0.73
74 0.15
75 0.15
76 0.15
77 0.15
78 0.15
8 -0.81

> <PUBCHEM_EFFECTIVE_ROTOR_COUNT>
11.4

> <PUBCHEM_PHARMACOPHORE_FEATURES>
13
1 22 hydrophobe
1 3 acceptor
1 3 donor
1 4 acceptor
1 5 acceptor
1 6 acceptor
1 7 donor
1 8 cation
5 1 6 19 20 24 rings
6 28 33 34 35 36 37 rings
6 5 8 29 30 31 32 rings
6 9 10 11 12 13 15 rings
6 9 10 14 16 19 20 rings

> <PUBCHEM_HEAVY_ATOM_COUNT>
37

> <PUBCHEM_ATOM_DEF_STEREO_COUNT>
5

> <PUBCHEM_ATOM_UDEF_STEREO_COUNT>
1

> <PUBCHEM_BOND_DEF_STEREO_COUNT>
0

> <PUBCHEM_BOND_UDEF_STEREO_COUNT>
0

> <PUBCHEM_ISOTOPIC_ATOM_COUNT>
0

> <PUBCHEM_COMPONENT_COUNT>
1

> <PUBCHEM_CACTVS_TAUTO_COUNT>
2

> <PUBCHEM_CONFORMER_ID>
016A80FD00000019

> <PUBCHEM_MMFF94_ENERGY>
89.4477

> <PUBCHEM_FEATURE_SELFOVERLAP>
66.053

> <PUBCHEM_SHAPE_FINGERPRINT>
11007060 377 14057018130108962257
11135609 12 17989203780795200302
11479125 193 14057868125732964230
12422481 6 14189589511086023496
12655364 131 13829861167036099749
13111901 137 18202847638715413038
13782708 43 17989205966622492982
13947930 73 17988356074135859150
13947947 140 17415273112602618183
14117953 113 18339344346168408791
14790565 3 16733845073176178088
15082195 135 17167866383270855672
15328829 1 17530969059560517487
15352257 5 17846781806008217206
15510800 12 18059570347767876247
15684393 108 17022904575420964027
15684973 49 18118125771091341053
16989378 47 18189335834647170742
21599406 157 18341059540561442350
2260408 40 11815630653052631012
23522609 53 17752220400306412828
25122255 55 18060138747396238683
25269216 80 18336273422074741974
3680242 22 14117794713613196624
392239 28 13183018531711651955
42767 24 18200301242610316095
4573279 73 17749102258422871298
49967989 163 18410014360030439103
5104073 3 13039183689489729754
58902169 19 17458901536070033634
6201320 77 17344941613679451927
7918774 8 17846782931289590106
86090 222 17561082501930571910

> <PUBCHEM_SHAPE_MULTIPOLES>
736.59
19.66
3.99
3.02
8.27
2.27
0.12
11.09
9.72
-9.6
0.77
5.25
0.4
0.19

> <PUBCHEM_SHAPE_SELFOVERLAP>
1529.103

> <PUBCHEM_SHAPE_VOLUME>
424.2

> <PUBCHEM_COORDINATE_TYPE>
2
5
10

$$$$
