26761906
  -OEChem-12032416353D

 55 60  0     1  0  0  0  0  0999 V2000
    0.2402    0.7846    2.2482 O   0  0  0  0  0  0  0  0  0  0  0  0
    6.4822    1.7776    0.4380 O   0  0  0  0  0  0  0  0  0  0  0  0
    6.8365    0.3655   -1.4824 O   0  0  0  0  0  0  0  0  0  0  0  0
   -2.4528   -0.2526    0.2332 N   0  0  2  0  0  0  0  0  0  0  0  0
   -2.0652   -3.4680   -1.6049 N   0  0  0  0  0  0  0  0  0  0  0  0
   -1.6842   -4.3323    0.4221 N   0  0  0  0  0  0  0  0  0  0  0  0
    0.8039   -0.4370    0.4575 N   0  0  0  0  0  0  0  0  0  0  0  0
    1.5793    1.0905    1.9739 N   0  0  0  0  0  0  0  0  0  0  0  0
   -3.9318    1.5475   -0.5691 C   0  0  0  0  0  0  0  0  0  0  0  0
   -2.5656    1.1844    0.0099 C   0  0  0  0  0  0  0  0  0  0  0  0
   -5.0538    1.1503    0.3996 C   0  0  0  0  0  0  0  0  0  0  0  0
   -3.9999    3.0446   -0.8996 C   0  0  0  0  0  0  0  0  0  0  0  0
   -6.4273    1.5515   -0.1336 C   0  0  0  0  0  0  0  0  0  0  0  0
   -5.3751    3.4428   -1.4306 C   0  0  0  0  0  0  0  0  0  0  0  0
   -1.5816   -0.6238    1.3896 C   0  0  1  0  0  0  0  0  0  0  0  0
   -6.4884    3.0384   -0.4691 C   0  0  0  0  0  0  0  0  0  0  0  0
   -2.1764   -0.9761   -1.0260 C   0  0  0  0  0  0  0  0  0  0  0  0
   -1.6862   -2.1544    1.7272 C   0  0  0  0  0  0  0  0  0  0  0  0
   -2.0303   -2.4192   -0.7376 C   0  0  0  0  0  0  0  0  0  0  0  0
   -1.7907   -2.9725    0.4958 C   0  0  0  0  0  0  0  0  0  0  0  0
   -0.1387   -0.1217    1.3094 C   0  0  0  0  0  0  0  0  0  0  0  0
   -1.8521   -4.6006   -0.8581 C   0  0  0  0  0  0  0  0  0  0  0  0
    1.8390    0.3314    0.9052 C   0  0  0  0  0  0  0  0  0  0  0  0
    3.1212    0.3164    0.2625 C   0  0  0  0  0  0  0  0  0  0  0  0
    4.1531    1.1187    0.7552 C   0  0  0  0  0  0  0  0  0  0  0  0
    3.3279   -0.5073   -0.8580 C   0  0  0  0  0  0  0  0  0  0  0  0
    5.3688    1.0699    0.1042 C   0  0  0  0  0  0  0  0  0  0  0  0
    5.5711    0.2636   -0.9925 C   0  0  0  0  0  0  0  0  0  0  0  0
    4.5689   -0.5382   -1.4987 C   0  0  0  0  0  0  0  0  0  0  0  0
    7.4083    1.3260   -0.5713 C   0  0  0  0  0  0  0  0  0  0  0  0
   -4.0887    1.0096   -1.5127 H   0  0  0  0  0  0  0  0  0  0  0  0
   -2.4542    1.7251    0.9597 H   0  0  0  0  0  0  0  0  0  0  0  0
   -1.7575    1.5467   -0.6388 H   0  0  0  0  0  0  0  0  0  0  0  0
   -4.8940    1.6281    1.3749 H   0  0  0  0  0  0  0  0  0  0  0  0
   -5.0550    0.0678    0.5722 H   0  0  0  0  0  0  0  0  0  0  0  0
   -3.2380    3.2984   -1.6463 H   0  0  0  0  0  0  0  0  0  0  0  0
   -3.7754    3.6360   -0.0026 H   0  0  0  0  0  0  0  0  0  0  0  0
   -7.1959    1.3100    0.6092 H   0  0  0  0  0  0  0  0  0  0  0  0
   -6.6556    0.9646   -1.0319 H   0  0  0  0  0  0  0  0  0  0  0  0
   -5.5424    2.9660   -2.4043 H   0  0  0  0  0  0  0  0  0  0  0  0
   -5.4065    4.5256   -1.5960 H   0  0  0  0  0  0  0  0  0  0  0  0
   -2.0108   -0.1242    2.2713 H   0  0  0  0  0  0  0  0  0  0  0  0
   -7.4623    3.2774   -0.9108 H   0  0  0  0  0  0  0  0  0  0  0  0
   -6.4036    3.6245    0.4542 H   0  0  0  0  0  0  0  0  0  0  0  0
   -1.2584   -0.6071   -1.4993 H   0  0  0  0  0  0  0  0  0  0  0  0
   -2.9986   -0.8451   -1.7369 H   0  0  0  0  0  0  0  0  0  0  0  0
   -2.5954   -2.3244    2.3180 H   0  0  0  0  0  0  0  0  0  0  0  0
   -0.8312   -2.4804    2.3300 H   0  0  0  0  0  0  0  0  0  0  0  0
   -2.2139   -3.4267   -2.6046 H   0  0  0  0  0  0  0  0  0  0  0  0
   -1.8315   -5.5828   -1.3083 H   0  0  0  0  0  0  0  0  0  0  0  0
    4.0344    1.7678    1.6167 H   0  0  0  0  0  0  0  0  0  0  0  0
    2.5335   -1.1371   -1.2523 H   0  0  0  0  0  0  0  0  0  0  0  0
    4.7325   -1.1717   -2.3630 H   0  0  0  0  0  0  0  0  0  0  0  0
    8.2721    0.8683   -0.0754 H   0  0  0  0  0  0  0  0  0  0  0  0
    7.7516    2.1938   -1.1460 H   0  0  0  0  0  0  0  0  0  0  0  0
  1  8  1  0  0  0  0
  1 21  1  0  0  0  0
  2 27  1  0  0  0  0
  2 30  1  0  0  0  0
  3 28  1  0  0  0  0
  3 30  1  0  0  0  0
  4 10  1  0  0  0  0
  4 15  1  0  0  0  0
  4 17  1  0  0  0  0
  5 19  1  0  0  0  0
  5 22  1  0  0  0  0
  5 49  1  0  0  0  0
  6 20  1  0  0  0  0
  6 22  2  0  0  0  0
  7 21  2  0  0  0  0
  7 23  1  0  0  0  0
  8 23  2  0  0  0  0
  9 10  1  0  0  0  0
  9 11  1  0  0  0  0
  9 12  1  0  0  0  0
  9 31  1  0  0  0  0
 10 32  1  0  0  0  0
 10 33  1  0  0  0  0
 11 13  1  0  0  0  0
 11 34  1  0  0  0  0
 11 35  1  0  0  0  0
 12 14  1  0  0  0  0
 12 36  1  0  0  0  0
 12 37  1  0  0  0  0
 13 16  1  0  0  0  0
 13 38  1  0  0  0  0
 13 39  1  0  0  0  0
 14 16  1  0  0  0  0
 14 40  1  0  0  0  0
 14 41  1  0  0  0  0
 15 18  1  0  0  0  0
 15 21  1  0  0  0  0
 15 42  1  0  0  0  0
 16 43  1  0  0  0  0
 16 44  1  0  0  0  0
 17 19  1  0  0  0  0
 17 45  1  0  0  0  0
 17 46  1  0  0  0  0
 18 20  1  0  0  0  0
 18 47  1  0  0  0  0
 18 48  1  0  0  0  0
 19 20  2  0  0  0  0
 22 50  1  0  0  0  0
 23 24  1  0  0  0  0
 24 25  2  0  0  0  0
 24 26  1  0  0  0  0
 25 27  1  0  0  0  0
 25 51  1  0  0  0  0
 26 29  2  0  0  0  0
 26 52  1  0  0  0  0
 27 28  2  0  0  0  0
 28 29  1  0  0  0  0
 29 53  1  0  0  0  0
 30 54  1  0  0  0  0
 30 55  1  0  0  0  0
M  END
> <PUBCHEM_COMPOUND_CID>
26761906

> <PUBCHEM_CONFORMER_RMSD>
0.8

> <PUBCHEM_CONFORMER_DIVERSEORDER>
2
42
23
26
57
54
67
10
11
59
25
70
50
61
64
12
34
81
44
21
30
71
47
38
9
7
43
53
28
32
66
65
56
35
29
40
73
3
48
24
75
62
78
39
46
18
5
4
17
31
60
22
77
72
14
68
19
20
8
79
63
1
27
36
58
52
80
55
13
45
15
6
16
33
41
49
74
51
37
76
69

> <PUBCHEM_MMFF94_PARTIAL_CHARGES>
29
1 -0.02
10 0.27
15 0.45
17 0.45
18 0.18
19 -0.33
2 -0.36
20 0.05
21 0.3
22 0.04
23 0.46
24 0.05
25 -0.15
26 -0.15
27 0.08
28 0.08
29 -0.15
3 -0.36
30 0.56
4 -0.81
49 0.27
5 0.03
50 0.15
51 0.15
52 0.15
53 0.15
6 -0.57
7 -0.57
8 -0.41

> <PUBCHEM_EFFECTIVE_ROTOR_COUNT>
6.6

> <PUBCHEM_PHARMACOPHORE_FEATURES>
12
1 2 acceptor
1 3 acceptor
1 4 cation
1 5 donor
3 5 6 22 cation
3 7 8 23 cation
5 1 7 8 21 23 rings
5 2 3 27 28 30 rings
5 5 6 19 20 22 rings
6 24 25 26 27 28 29 rings
6 4 15 17 18 19 20 rings
6 9 11 12 13 14 16 rings

> <PUBCHEM_HEAVY_ATOM_COUNT>
30

> <PUBCHEM_ATOM_DEF_STEREO_COUNT>
1

> <PUBCHEM_ATOM_UDEF_STEREO_COUNT>
0

> <PUBCHEM_BOND_DEF_STEREO_COUNT>
0

> <PUBCHEM_BOND_UDEF_STEREO_COUNT>
0

> <PUBCHEM_ISOTOPIC_ATOM_COUNT>
0

> <PUBCHEM_COMPONENT_COUNT>
1

> <PUBCHEM_CACTVS_TAUTO_COUNT>
2

> <PUBCHEM_CONFORMER_ID>
01985AB200000002

> <PUBCHEM_MMFF94_ENERGY>
53.6419

> <PUBCHEM_FEATURE_SELFOVERLAP>
61.154

> <PUBCHEM_SHAPE_FINGERPRINT>
10165383 225 18343026567259185257
10190108 129 18341893035681182911
10190206 1 18338784711523733503
10369192 42 18335140844084779893
105312 117 18408886222266196519
10675989 125 18053387591493368384
107951 10 18413388731014611207
10835480 77 17988923414384912616
11200772 48 18272933829752376687
11297750 10 17770493450425441923
11488393 25 17906176149163221931
11823591 26 18114453475474046261
11991303 11 18411698798938353727
12166972 35 12966832551327170401
12373685 5 18339062862327605858
12895836 83 18408602548166165541
12895837 130 18114472265914139076
12977781 61 15480383279636168382
13257819 37 18410854339880312423
13540713 4 17630312271877118600
13690498 29 18126568053270869062
13757389 114 18408604781934216901
13911987 19 18341045217141454537
14068700 686 17550374580982713648
15131766 46 14419854845550285166
15183329 4 17560802087145781145
15198563 99 18267572693699216799
15230672 131 18409729522400959798
15463212 79 18260823800094403146
15575132 122 17968934168169160469
15803439 3 18058998507010405239
19315092 285 13541330546742585134
19319366 153 17313377873061037728
19958102 18 18200324199710984388
20505436 4 17967810526892116218
21033648 29 18341601608347512289
21033650 10 18261666094704893330
21365058 27 18271810091153035271
21756936 100 17821447971509083457
21781055 127 17985824831002021280
22393880 68 18270677684107099186
22956985 138 9796825062616702725
23559900 14 17775002436268654520
249057 3 18336547093676156686
3004659 81 13614227183662980625
3610482 184 17822019743799954580
3729539 64 17986397685218896959
392239 28 13984675736847424133
4015057 19 16917063395101534520
4058900 60 18196658393747563409
4173938 306 17988347188570956618
44062 13 18342178929250468810
44249763 50 18339071696679948072
44802255 64 18336276694591947023
484985 159 16056325054267464727
508706 21 18199181961495574038
5219985 13 18115864114395783229
531348 171 18408886248500607034
58260988 587 18122348970147586177
6376802 90 18129084801105945984
6669772 16 18270685255765599375
6898599 12 18337676420423485572

> <PUBCHEM_SHAPE_MULTIPOLES>
574.87
16.68
4.59
1.63
17.1
5.35
-0.36
-18.93
6.32
-8.41
1.6
0.39
0.24
1.31

> <PUBCHEM_SHAPE_SELFOVERLAP>
1269.923

> <PUBCHEM_SHAPE_VOLUME>
307.9

> <PUBCHEM_COORDINATE_TYPE>
2
5
10

$$$$
