51136827
  -OEChem-12032416223D

 57 61  0     1  0  0  0  0  0999 V2000
   -2.9530   -1.0960   -2.9994 S   0  0  0  0  0  0  0  0  0  0  0  0
   -3.8678    1.7502   -0.1964 O   0  0  0  0  0  0  0  0  0  0  0  0
    6.1136   -2.8594    1.4251 O   0  0  0  0  0  0  0  0  0  0  0  0
   -3.8251   -1.8291    0.6351 N   0  0  1  0  0  0  0  0  0  0  0  0
    2.9833    0.9414    0.2684 N   0  0  0  0  0  0  0  0  0  0  0  0
    5.0919   -1.0367    0.4083 N   0  0  0  0  0  0  0  0  0  0  0  0
   -2.0950    0.6021    0.5489 N   0  0  0  0  0  0  0  0  0  0  0  0
   -2.7573    2.5827   -0.3849 N   0  0  0  0  0  0  0  0  0  0  0  0
    2.2600    3.1830    0.0985 N   0  0  0  0  0  0  0  0  0  0  0  0
   -4.4086   -0.4730    0.6627 C   0  0  1  0  0  0  0  0  0  0  0  0
   -5.0148   -0.3366    2.0716 C   0  0  0  0  0  0  0  0  0  0  0  0
   -4.7776   -1.6839    2.7388 C   0  0  0  0  0  0  0  0  0  0  0  0
   -4.6084   -2.6353    1.5716 C   0  0  0  0  0  0  0  0  0  0  0  0
   -3.7941   -2.4142   -0.6992 C   0  0  0  0  0  0  0  0  0  0  0  0
   -3.3900    0.6053    0.3578 C   0  0  0  0  0  0  0  0  0  0  0  0
    4.2893    1.2015   -0.3422 C   0  0  0  0  0  0  0  0  0  0  0  0
    2.8038   -0.3079    1.0133 C   0  0  0  0  0  0  0  0  0  0  0  0
   -2.6420   -1.8902   -1.5145 C   0  0  0  0  0  0  0  0  0  0  0  0
    4.9827   -0.1078   -0.7188 C   0  0  0  0  0  0  0  0  0  0  0  0
    4.1478   -0.8406    1.5054 C   0  0  0  0  0  0  0  0  0  0  0  0
    1.9490    1.8697    0.1774 C   0  0  0  0  0  0  0  0  0  0  0  0
   -1.7507    1.8358    0.0782 C   0  0  0  0  0  0  0  0  0  0  0  0
   -0.3898    2.2929    0.0863 C   0  0  0  0  0  0  0  0  0  0  0  0
   -1.2946   -1.9547   -1.2351 C   0  0  0  0  0  0  0  0  0  0  0  0
    0.6535    1.3780    0.1751 C   0  0  0  0  0  0  0  0  0  0  0  0
    6.0201   -2.0763    0.4772 C   0  0  0  0  0  0  0  0  0  0  0  0
   -0.1097    3.6524    0.0036 C   0  0  0  0  0  0  0  0  0  0  0  0
   -0.5072   -1.3440   -2.2535 C   0  0  0  0  0  0  0  0  0  0  0  0
   -1.2826   -0.8360   -3.2723 C   0  0  0  0  0  0  0  0  0  0  0  0
    6.9534   -2.2156   -0.7005 C   0  0  0  0  0  0  0  0  0  0  0  0
    1.2198    4.0424    0.0134 C   0  0  0  0  0  0  0  0  0  0  0  0
   -5.2307   -0.3884   -0.0619 H   0  0  0  0  0  0  0  0  0  0  0  0
   -4.5777    0.4738    2.6650 H   0  0  0  0  0  0  0  0  0  0  0  0
   -6.0931   -0.1516    1.9924 H   0  0  0  0  0  0  0  0  0  0  0  0
   -5.6025   -1.9703    3.3977 H   0  0  0  0  0  0  0  0  0  0  0  0
   -3.8594   -1.6464    3.3382 H   0  0  0  0  0  0  0  0  0  0  0  0
   -5.5876   -2.9056    1.1562 H   0  0  0  0  0  0  0  0  0  0  0  0
   -4.0834   -3.5480    1.8699 H   0  0  0  0  0  0  0  0  0  0  0  0
   -4.7552   -2.2974   -1.2166 H   0  0  0  0  0  0  0  0  0  0  0  0
   -3.6315   -3.4983   -0.6151 H   0  0  0  0  0  0  0  0  0  0  0  0
    4.1795    1.8081   -1.2494 H   0  0  0  0  0  0  0  0  0  0  0  0
    4.9079    1.7674    0.3649 H   0  0  0  0  0  0  0  0  0  0  0  0
    2.1623   -0.1544    1.8899 H   0  0  0  0  0  0  0  0  0  0  0  0
    2.3296   -1.0547    0.3644 H   0  0  0  0  0  0  0  0  0  0  0  0
    5.9752    0.1095   -1.1239 H   0  0  0  0  0  0  0  0  0  0  0  0
    4.4121   -0.6267   -1.4987 H   0  0  0  0  0  0  0  0  0  0  0  0
    4.0029   -1.7797    2.0501 H   0  0  0  0  0  0  0  0  0  0  0  0
    4.6113   -0.1286    2.1993 H   0  0  0  0  0  0  0  0  0  0  0  0
   -0.8874   -2.4162   -0.3444 H   0  0  0  0  0  0  0  0  0  0  0  0
    0.4438    0.3149    0.2232 H   0  0  0  0  0  0  0  0  0  0  0  0
   -0.8848    4.4090   -0.0618 H   0  0  0  0  0  0  0  0  0  0  0  0
    0.5730   -1.2793   -2.2383 H   0  0  0  0  0  0  0  0  0  0  0  0
   -0.9481   -0.3237   -4.1633 H   0  0  0  0  0  0  0  0  0  0  0  0
    7.5167   -3.1493   -0.6083 H   0  0  0  0  0  0  0  0  0  0  0  0
    6.3916   -2.2513   -1.6374 H   0  0  0  0  0  0  0  0  0  0  0  0
    7.6625   -1.3838   -0.7141 H   0  0  0  0  0  0  0  0  0  0  0  0
    1.4918    5.0911   -0.0475 H   0  0  0  0  0  0  0  0  0  0  0  0
  1 18  1  0  0  0  0
  1 29  1  0  0  0  0
  2  8  1  0  0  0  0
  2 15  1  0  0  0  0
  3 26  2  0  0  0  0
  4 10  1  0  0  0  0
  4 13  1  0  0  0  0
  4 14  1  0  0  0  0
  5 16  1  0  0  0  0
  5 17  1  0  0  0  0
  5 21  1  0  0  0  0
  6 19  1  0  0  0  0
  6 20  1  0  0  0  0
  6 26  1  0  0  0  0
  7 15  2  0  0  0  0
  7 22  1  0  0  0  0
  8 22  2  0  0  0  0
  9 21  2  0  0  0  0
  9 31  1  0  0  0  0
 10 11  1  0  0  0  0
 10 15  1  0  0  0  0
 10 32  1  0  0  0  0
 11 12  1  0  0  0  0
 11 33  1  0  0  0  0
 11 34  1  0  0  0  0
 12 13  1  0  0  0  0
 12 35  1  0  0  0  0
 12 36  1  0  0  0  0
 13 37  1  0  0  0  0
 13 38  1  0  0  0  0
 14 18  1  0  0  0  0
 14 39  1  0  0  0  0
 14 40  1  0  0  0  0
 16 19  1  0  0  0  0
 16 41  1  0  0  0  0
 16 42  1  0  0  0  0
 17 20  1  0  0  0  0
 17 43  1  0  0  0  0
 17 44  1  0  0  0  0
 18 24  2  0  0  0  0
 19 45  1  0  0  0  0
 19 46  1  0  0  0  0
 20 47  1  0  0  0  0
 20 48  1  0  0  0  0
 21 25  1  0  0  0  0
 22 23  1  0  0  0  0
 23 25  2  0  0  0  0
 23 27  1  0  0  0  0
 24 28  1  0  0  0  0
 24 49  1  0  0  0  0
 25 50  1  0  0  0  0
 26 30  1  0  0  0  0
 27 31  2  0  0  0  0
 27 51  1  0  0  0  0
 28 29  2  0  0  0  0
 28 52  1  0  0  0  0
 29 53  1  0  0  0  0
 30 54  1  0  0  0  0
 30 55  1  0  0  0  0
 30 56  1  0  0  0  0
 31 57  1  0  0  0  0
M  END
> <PUBCHEM_COMPOUND_CID>
51136827

> <PUBCHEM_CONFORMER_RMSD>
1

> <PUBCHEM_CONFORMER_DIVERSEORDER>
1
142
69
37
177
83
183
75
40
79
42
164
102
16
156
175
56
76
100
7
51
60
194
165
110
39
124
49
33
121
90
24
174
133
94
160
155
12
140
18
184
25
108
103
59
99
85
106
149
107
66
128
181
97
118
87
166
113
169
119
185
5
158
173
27
28
161
20
35
171
192
139
3
147
111
143
153
95
178
120
91
50
190
145
186
125
4
170
68
136
144
82
176
93
159
47
64
80
150
11
132
193
30
41
135
101
152
63
46
9
53
34
180
129
23
54
154
71
73
29
44
137
141
89
65
189
19
58
168
45
126
122
151
55
195
104
138
157
114
179
57
191
182
77
130
6
21
43
26
131
13
22
52
112
96
10
15
105
86
123
84
32
74
188
146
162
70
31
115
62
2
127
61
163
117
134
48
36
78
148
109
98
14
88
116
67
72
17
167
8
81
38
92
172
187

> <PUBCHEM_MMFF94_PARTIAL_CHARGES>
35
1 -0.08
10 0.45
13 0.27
14 0.45
15 0.3
16 0.37
17 0.37
18 -0.14
19 0.3
2 -0.02
20 0.3
21 0.41
22 0.46
23 0.05
24 -0.15
25 -0.15
26 0.57
27 -0.15
28 -0.15
29 -0.11
3 -0.57
30 0.06
31 0.16
4 -0.81
49 0.15
5 -0.84
50 0.15
51 0.15
52 0.15
53 0.15
57 0.15
6 -0.66
7 -0.57
8 -0.41
9 -0.62

> <PUBCHEM_EFFECTIVE_ROTOR_COUNT>
8.2

> <PUBCHEM_PHARMACOPHORE_FEATURES>
9
1 3 acceptor
1 4 cation
3 5 9 21 cation
3 7 8 22 cation
5 1 18 24 28 29 rings
5 2 7 8 15 22 rings
5 4 10 11 12 13 rings
6 5 6 16 17 19 20 rings
6 9 21 23 25 27 31 rings

> <PUBCHEM_HEAVY_ATOM_COUNT>
31

> <PUBCHEM_ATOM_DEF_STEREO_COUNT>
1

> <PUBCHEM_ATOM_UDEF_STEREO_COUNT>
0

> <PUBCHEM_BOND_DEF_STEREO_COUNT>
0

> <PUBCHEM_BOND_UDEF_STEREO_COUNT>
0

> <PUBCHEM_ISOTOPIC_ATOM_COUNT>
0

> <PUBCHEM_COMPONENT_COUNT>
1

> <PUBCHEM_CACTVS_TAUTO_COUNT>
1

> <PUBCHEM_CONFORMER_ID>
030C493B00000001

> <PUBCHEM_MMFF94_ENERGY>
69.0511

> <PUBCHEM_FEATURE_SELFOVERLAP>
45.674

> <PUBCHEM_SHAPE_FINGERPRINT>
10305334 12 18264500477395043475
10622 236 17627776841335523647
10764073 3 18335150774133044213
10928967 22 18412539942497874558
11135926 11 18120930866267611100
11524674 6 17417239923374823637
11578080 2 16300342766743965271
11582403 64 7893053037738281233
11607047 141 16300389161587222105
117089 54 18335997410323422994
12107183 9 18340787982970602361
12422481 6 17846511313104711318
12553582 1 18411128169588473660
12633046 712 18113333124142626805
12633257 1 16988843908093519608
13690498 29 17895199861246730972
14114206 34 17896864496429351348
14117953 113 18270959021386686061
14279260 333 18115867391915247130
14480069 147 18113621200811229106
15160629 124 15590997036089187819
15274700 147 12024392864408907978
15537594 2 18341338902298367180
16110190 28 18201720669667057832
16991981 162 15286460055965851655
19319366 153 17761508279652241164
208703 8 18410007754270894426
21133410 221 16834597519744250950
21796203 349 18198087904628998400
21987440 362 16125592993836946611
22440779 20 17530967964665863765
22907989 373 12540963089286349237
23559900 14 18334851753598595617
23569914 2 14186239183805069851
44880168 125 17560807572420262766
474113 269 18340484595377130511
497634 4 17385731257359805214
513202 73 18410014308084805463
56633871 153 18273498974350053999
7064713 232 17131566032364661527
7970288 3 18408040732168922706

> <PUBCHEM_SHAPE_MULTIPOLES>
600.19
13.81
4.29
2.4
17.36
3.25
-1.11
-13.11
6.41
1.69
0.01
-3.36
-2.14
-0.47

> <PUBCHEM_SHAPE_SELFOVERLAP>
1281.943

> <PUBCHEM_SHAPE_VOLUME>
337.1

> <PUBCHEM_COORDINATE_TYPE>
2
5
10

$$$$
