75536923
  -OEChem-12032416303D

 48 50  0     1  0  0  0  0  0999 V2000
    6.0439    0.6374   -0.5289 S   0  0  0  0  0  0  0  0  0  0  0  0
   -1.0813   -3.3099    0.2855 O   0  0  0  0  0  0  0  0  0  0  0  0
    0.4607   -0.1891    1.2018 O   0  0  0  0  0  0  0  0  0  0  0  0
    6.5292   -0.5861   -1.1526 O   0  0  0  0  0  0  0  0  0  0  0  0
    6.1039    1.8947   -1.2605 O   0  0  0  0  0  0  0  0  0  0  0  0
   -2.7188   -0.8234   -0.6429 N   0  0  2  0  0  0  0  0  0  0  0  0
   -5.3052    0.8561    0.1652 N   0  0  0  0  0  0  0  0  0  0  0  0
   -3.8406    2.3930   -0.4861 N   0  0  0  0  0  0  0  0  0  0  0  0
   -1.5142   -0.1368   -0.1635 C   0  0  0  0  0  0  0  0  0  0  0  0
   -0.3551   -1.0017    0.3566 C   0  0  2  0  0  0  0  0  0  0  0  0
   -2.4572   -2.0753   -1.3545 C   0  0  0  0  0  0  0  0  0  0  0  0
   -0.7914   -2.2217    1.1566 C   0  0  0  0  0  0  0  0  0  0  0  0
   -3.5320    0.0900   -1.4466 C   0  0  0  0  0  0  0  0  0  0  0  0
   -2.3459   -3.2290   -0.3569 C   0  0  0  0  0  0  0  0  0  0  0  0
   -4.2057    1.1352   -0.5978 C   0  0  0  0  0  0  0  0  0  0  0  0
    1.7544    0.0025    0.8018 C   0  0  0  0  0  0  0  0  0  0  0  0
   -5.6640    2.0094    0.8042 C   0  0  0  0  0  0  0  0  0  0  0  0
    2.6055   -1.0915    0.6458 C   0  0  0  0  0  0  0  0  0  0  0  0
    2.2226    1.2920    0.5496 C   0  0  0  0  0  0  0  0  0  0  0  0
   -5.9769   -0.4164    0.2860 C   0  0  0  0  0  0  0  0  0  0  0  0
   -4.7456    2.9435    0.3865 C   0  0  0  0  0  0  0  0  0  0  0  0
    4.3932    0.3936   -0.0144 C   0  0  0  0  0  0  0  0  0  0  0  0
    3.9249   -0.8961    0.2377 C   0  0  0  0  0  0  0  0  0  0  0  0
    3.5420    1.4875    0.1416 C   0  0  0  0  0  0  0  0  0  0  0  0
    6.9535    0.8421    0.9858 C   0  0  0  0  0  0  0  0  0  0  0  0
   -1.8090    0.5495    0.6418 H   0  0  0  0  0  0  0  0  0  0  0  0
   -1.0917    0.5064   -0.9490 H   0  0  0  0  0  0  0  0  0  0  0  0
    0.2089   -1.3464   -0.5226 H   0  0  0  0  0  0  0  0  0  0  0  0
   -1.5730   -2.0013   -1.9986 H   0  0  0  0  0  0  0  0  0  0  0  0
   -3.3055   -2.3233   -2.0048 H   0  0  0  0  0  0  0  0  0  0  0  0
    0.0241   -2.5539    1.8084 H   0  0  0  0  0  0  0  0  0  0  0  0
   -1.6397   -2.0076    1.8184 H   0  0  0  0  0  0  0  0  0  0  0  0
   -4.3266   -0.4524   -1.9755 H   0  0  0  0  0  0  0  0  0  0  0  0
   -2.9372    0.5748   -2.2319 H   0  0  0  0  0  0  0  0  0  0  0  0
   -3.1460   -3.2012    0.3935 H   0  0  0  0  0  0  0  0  0  0  0  0
   -2.4690   -4.1700   -0.9049 H   0  0  0  0  0  0  0  0  0  0  0  0
   -6.5088    2.0680    1.4763 H   0  0  0  0  0  0  0  0  0  0  0  0
    2.2606   -2.1016    0.8473 H   0  0  0  0  0  0  0  0  0  0  0  0
    1.5638    2.1477    0.6702 H   0  0  0  0  0  0  0  0  0  0  0  0
   -6.3234   -0.7257   -0.7029 H   0  0  0  0  0  0  0  0  0  0  0  0
   -5.2769   -1.1449    0.7014 H   0  0  0  0  0  0  0  0  0  0  0  0
   -6.8344   -0.3113    0.9560 H   0  0  0  0  0  0  0  0  0  0  0  0
   -4.6899    3.9844    0.6699 H   0  0  0  0  0  0  0  0  0  0  0  0
    4.5729   -1.7614    0.1301 H   0  0  0  0  0  0  0  0  0  0  0  0
    3.8868    2.5011   -0.0429 H   0  0  0  0  0  0  0  0  0  0  0  0
    8.0031    1.0048    0.7314 H   0  0  0  0  0  0  0  0  0  0  0  0
    6.5617    1.7094    1.5207 H   0  0  0  0  0  0  0  0  0  0  0  0
    6.8520   -0.0636    1.5867 H   0  0  0  0  0  0  0  0  0  0  0  0
  1  4  2  0  0  0  0
  1  5  2  0  0  0  0
  1 22  1  0  0  0  0
  1 25  1  0  0  0  0
  2 12  1  0  0  0  0
  2 14  1  0  0  0  0
  3 10  1  0  0  0  0
  3 16  1  0  0  0  0
  6  9  1  0  0  0  0
  6 11  1  0  0  0  0
  6 13  1  0  0  0  0
  7 15  1  0  0  0  0
  7 17  1  0  0  0  0
  7 20  1  0  0  0  0
  8 15  2  0  0  0  0
  8 21  1  0  0  0  0
  9 10  1  0  0  0  0
  9 26  1  0  0  0  0
  9 27  1  0  0  0  0
 10 12  1  0  0  0  0
 10 28  1  0  0  0  0
 11 14  1  0  0  0  0
 11 29  1  0  0  0  0
 11 30  1  0  0  0  0
 12 31  1  0  0  0  0
 12 32  1  0  0  0  0
 13 15  1  0  0  0  0
 13 33  1  0  0  0  0
 13 34  1  0  0  0  0
 14 35  1  0  0  0  0
 14 36  1  0  0  0  0
 16 18  2  0  0  0  0
 16 19  1  0  0  0  0
 17 21  2  0  0  0  0
 17 37  1  0  0  0  0
 18 23  1  0  0  0  0
 18 38  1  0  0  0  0
 19 24  2  0  0  0  0
 19 39  1  0  0  0  0
 20 40  1  0  0  0  0
 20 41  1  0  0  0  0
 20 42  1  0  0  0  0
 21 43  1  0  0  0  0
 22 23  2  0  0  0  0
 22 24  1  0  0  0  0
 23 44  1  0  0  0  0
 24 45  1  0  0  0  0
 25 46  1  0  0  0  0
 25 47  1  0  0  0  0
 25 48  1  0  0  0  0
M  END
> <PUBCHEM_COMPOUND_CID>
75536923

> <PUBCHEM_CONFORMER_RMSD>
1

> <PUBCHEM_CONFORMER_DIVERSEORDER>
1
19
123
108
87
148
157
146
111
89
114
30
84
156
25
95
135
70
162
97
113
32
174
101
54
159
167
74
133
169
40
11
152
154
119
85
33
66
173
7
77
65
81
71
61
142
3
99
55
172
4
140
24
93
53
134
46
72
117
150
103
158
59
9
88
94
49
90
60
132
115
82
151
106
104
58
73
139
63
127
121
168
110
28
131
52
124
21
8
2
128
36
17
78
144
120
42
129
163
64
67
153
83
47
6
170
41
164
44
96
175
143
5
149
15
112
48
13
126
145
166
10
147
109
118
100
35
80
16
116
98
56
136
75
137
76
45
122
62
38
57
22
86
91
160
171
14
68
102
18
79
161
27
69
31
141
155
130
39
138
43
26
29
34
165
20
23
12
92
105
51
107
125
37
50

> <PUBCHEM_MMFF94_PARTIAL_CHARGES>
31
1 1.2
10 0.28
11 0.27
12 0.28
13 0.45
14 0.28
15 0.01
16 0.08
17 -0.3
18 -0.15
19 -0.15
2 -0.56
20 0.26
21 0.08
22 -0.01
23 -0.15
24 -0.15
25 0.11
3 -0.36
37 0.15
38 0.15
39 0.15
4 -0.65
43 0.15
44 0.15
45 0.15
5 -0.65
6 -0.81
7 0.05
8 -0.57
9 0.27

> <PUBCHEM_EFFECTIVE_ROTOR_COUNT>
6.4

> <PUBCHEM_PHARMACOPHORE_FEATURES>
9
1 2 acceptor
1 3 acceptor
1 4 acceptor
1 5 acceptor
1 6 cation
3 7 8 15 cation
5 7 8 15 17 21 rings
6 16 18 19 22 23 24 rings
7 2 6 9 10 11 12 14 rings

> <PUBCHEM_HEAVY_ATOM_COUNT>
25

> <PUBCHEM_ATOM_DEF_STEREO_COUNT>
1

> <PUBCHEM_ATOM_UDEF_STEREO_COUNT>
0

> <PUBCHEM_BOND_DEF_STEREO_COUNT>
0

> <PUBCHEM_BOND_UDEF_STEREO_COUNT>
0

> <PUBCHEM_ISOTOPIC_ATOM_COUNT>
0

> <PUBCHEM_COMPONENT_COUNT>
1

> <PUBCHEM_CACTVS_TAUTO_COUNT>
1

> <PUBCHEM_CONFORMER_ID>
04809A1B00000001

> <PUBCHEM_MMFF94_ENERGY>
62.6803

> <PUBCHEM_FEATURE_SELFOVERLAP>
45.692

> <PUBCHEM_SHAPE_FINGERPRINT>
10 15 11746939828507062764
10613725 11 18202002118768606084
10670039 82 18412819175506801293
107951 10 18413390934296118711
10835480 77 18201431537154510016
11823591 26 18335411327859897209
12390115 104 18341899567624202915
12788726 201 17560241306166370400
12954195 1 18271800272541837799
13885169 86 17894922866279736676
14251752 14 18343301440501799034
14251757 5 18343864420066681169
1454969 45 18410851067616269391
14713325 29 18337673130716459067
14790565 3 18338235942813903161
15183329 4 18410849950217910270
15188451 53 9871469786118884116
15575132 122 18114739318470005509
16991971 28 17699828899920301663
17349148 13 11959726105336562264
17913733 40 15574705885774046704
18222031 100 13254796846208071482
18608769 82 18338518655099923875
20621476 66 18413110550061174472
20681677 155 18412541020370635274
21756936 100 18412819192775957935
22393880 68 18270675489347389426
23198884 109 18201999932429688453
23402655 69 18410289216467613474
23559900 14 17846488279754136056
23569914 152 16840526163760426540
3009799 131 17346877858541146304
312425 54 12396847853575755333
339767 52 8646763392222930193
3610482 184 18115321088906236404
38570 142 18113907030884777898
392239 28 12468647092514096445
4073 2 18336826507115804506
4098825 35 18342742896942620342
5104073 3 17604141653732995744
5283173 99 18271237322408717792
59755656 520 18259984877107093547
6126387 218 18343577423033210882
7226269 152 17846497006837732425
7808743 9 18409726262008208809

> <PUBCHEM_SHAPE_MULTIPOLES>
479.92
17.11
3.09
1.16
14.22
1.14
0.16
-10.76
1.81
-4.2
-0.08
0.24
0.11
-0.86

> <PUBCHEM_SHAPE_SELFOVERLAP>
995.504

> <PUBCHEM_SHAPE_VOLUME>
275.9

> <PUBCHEM_COORDINATE_TYPE>
2
5
10

$$$$
