24148473
  -OEChem-12032416123D

 71 74  0     1  0  0  0  0  0999 V2000
   11.1671   -0.8000   -0.5403 Cl  0  0  0  0  0  0  0  0  0  0  0  0
    2.3389    2.0412    0.7805 S   0  0  0  0  0  0  0  0  0  0  0  0
    5.0327   -0.4225    0.7383 S   0  0  0  0  0  0  0  0  0  0  0  0
   -3.1145   -1.5993   -0.9968 O   0  0  0  0  0  0  0  0  0  0  0  0
   -7.3211    1.5035   -0.2619 O   0  0  0  0  0  0  0  0  0  0  0  0
    4.4594   -1.7277    0.4662 O   0  0  0  0  0  0  0  0  0  0  0  0
    4.8827    0.1875    2.0468 O   0  0  0  0  0  0  0  0  0  0  0  0
    2.0678    0.0909   -0.8954 N   0  0  0  0  0  0  0  0  0  0  0  0
   -7.3132   -0.5084    0.8810 N   0  0  0  0  0  0  0  0  0  0  0  0
   -1.7045    1.7995    0.0654 C   0  0  1  0  0  0  0  0  0  0  0  0
   -1.7224    0.2509   -0.2454 C   0  0  1  0  0  0  0  0  0  0  0  0
   -3.0542   -0.1753   -0.9256 C   0  0  2  0  0  0  0  0  0  0  0  0
   -4.3013    0.2970   -0.1468 C   0  0  1  0  0  0  0  0  0  0  0  0
   -2.9710    2.1851    0.8648 C   0  0  0  0  0  0  0  0  0  0  0  0
   -0.4327   -0.2077   -1.0416 C   0  0  1  0  0  0  0  0  0  0  0  0
   -4.2641    1.7934    0.1629 C   0  0  0  0  0  0  0  0  0  0  0  0
   -0.4685    2.1456    0.9535 C   0  0  0  0  0  0  0  0  0  0  0  0
   -1.6469    2.6522   -1.2290 C   0  0  0  0  0  0  0  0  0  0  0  0
   -5.5994   -0.0405   -0.8904 C   0  0  2  0  0  0  0  0  0  0  0  0
    0.7998    0.4662   -0.4879 C   0  0  0  0  0  0  0  0  0  0  0  0
    0.7630    1.5240    0.3968 C   0  0  0  0  0  0  0  0  0  0  0  0
   -0.2363   -1.7309   -1.0528 C   0  0  0  0  0  0  0  0  0  0  0  0
   -5.6034    0.6597   -2.2478 C   0  0  0  0  0  0  0  0  0  0  0  0
   -6.8226    0.3882   -0.0742 C   0  0  0  0  0  0  0  0  0  0  0  0
    2.9560    0.8442   -0.2842 C   0  0  0  0  0  0  0  0  0  0  0  0
    4.4194    0.7243   -0.4613 C   0  0  0  0  0  0  0  0  0  0  0  0
   -6.8062   -1.8544    1.1405 C   0  0  0  0  0  0  0  0  0  0  0  0
   -8.4603   -0.1222    1.6956 C   0  0  0  0  0  0  0  0  0  0  0  0
    6.7595   -0.5293    0.3790 C   0  0  0  0  0  0  0  0  0  0  0  0
   -7.5367   -2.8260    0.2746 C   0  0  0  0  0  0  0  0  0  0  0  0
    7.6561    0.3408    0.9993 C   0  0  0  0  0  0  0  0  0  0  0  0
    7.2261   -1.4832   -0.5256 C   0  0  0  0  0  0  0  0  0  0  0  0
   -8.2428   -3.8602    0.7456 C   0  0  0  0  0  0  0  0  0  0  0  0
    9.0190    0.2571    0.7152 C   0  0  0  0  0  0  0  0  0  0  0  0
    8.5889   -1.5669   -0.8098 C   0  0  0  0  0  0  0  0  0  0  0  0
    9.4855   -0.6968   -0.1895 C   0  0  0  0  0  0  0  0  0  0  0  0
   -1.6814   -0.2690    0.7255 H   0  0  0  0  0  0  0  0  0  0  0  0
   -3.0378    0.1986   -1.9509 H   0  0  0  0  0  0  0  0  0  0  0  0
   -4.3129   -0.2307    0.8164 H   0  0  0  0  0  0  0  0  0  0  0  0
   -2.9490    1.6957    1.8480 H   0  0  0  0  0  0  0  0  0  0  0  0
   -2.9808    3.2648    1.0619 H   0  0  0  0  0  0  0  0  0  0  0  0
   -0.5333    0.1207   -2.0847 H   0  0  0  0  0  0  0  0  0  0  0  0
   -5.0852    2.0708    0.8334 H   0  0  0  0  0  0  0  0  0  0  0  0
   -4.3666    2.4178   -0.7266 H   0  0  0  0  0  0  0  0  0  0  0  0
   -0.6155    1.7569    1.9698 H   0  0  0  0  0  0  0  0  0  0  0  0
   -0.3551    3.2336    1.0376 H   0  0  0  0  0  0  0  0  0  0  0  0
   -2.4616    2.4169   -1.9196 H   0  0  0  0  0  0  0  0  0  0  0  0
   -1.7192    3.7200   -0.9913 H   0  0  0  0  0  0  0  0  0  0  0  0
   -0.7129    2.5132   -1.7817 H   0  0  0  0  0  0  0  0  0  0  0  0
   -5.6589   -1.1130   -1.0948 H   0  0  0  0  0  0  0  0  0  0  0  0
   -0.2953   -2.1467   -0.0411 H   0  0  0  0  0  0  0  0  0  0  0  0
   -0.9764   -2.2303   -1.6820 H   0  0  0  0  0  0  0  0  0  0  0  0
    0.7404   -2.0092   -1.4648 H   0  0  0  0  0  0  0  0  0  0  0  0
   -3.0889   -1.9476   -0.0892 H   0  0  0  0  0  0  0  0  0  0  0  0
   -6.5523    0.4393   -2.7552 H   0  0  0  0  0  0  0  0  0  0  0  0
   -4.8248    0.2937   -2.9210 H   0  0  0  0  0  0  0  0  0  0  0  0
   -5.5506    1.7496   -2.2038 H   0  0  0  0  0  0  0  0  0  0  0  0
    4.9404    1.6774   -0.3301 H   0  0  0  0  0  0  0  0  0  0  0  0
    4.6519    0.3284   -1.4548 H   0  0  0  0  0  0  0  0  0  0  0  0
   -6.9194   -2.0784    2.2076 H   0  0  0  0  0  0  0  0  0  0  0  0
   -5.7394   -1.9167    0.9180 H   0  0  0  0  0  0  0  0  0  0  0  0
   -8.1740   -0.1618    2.7509 H   0  0  0  0  0  0  0  0  0  0  0  0
   -8.8032    0.8899    1.4667 H   0  0  0  0  0  0  0  0  0  0  0  0
   -9.2833   -0.8189    1.5123 H   0  0  0  0  0  0  0  0  0  0  0  0
   -7.4790   -2.6929   -0.8026 H   0  0  0  0  0  0  0  0  0  0  0  0
    7.3128    1.0952    1.7016 H   0  0  0  0  0  0  0  0  0  0  0  0
    6.5446   -2.1656   -1.0255 H   0  0  0  0  0  0  0  0  0  0  0  0
   -8.7467   -4.5371    0.0645 H   0  0  0  0  0  0  0  0  0  0  0  0
   -8.3313   -4.0487    1.8097 H   0  0  0  0  0  0  0  0  0  0  0  0
    9.7060    0.9425    1.2047 H   0  0  0  0  0  0  0  0  0  0  0  0
    8.9381   -2.3139   -1.5180 H   0  0  0  0  0  0  0  0  0  0  0  0
  1 36  1  0  0  0  0
  2 21  1  0  0  0  0
  2 25  1  0  0  0  0
  3  6  2  0  0  0  0
  3  7  2  0  0  0  0
  3 26  1  0  0  0  0
  3 29  1  0  0  0  0
  4 12  1  0  0  0  0
  4 54  1  0  0  0  0
  5 24  2  0  0  0  0
  8 20  1  0  0  0  0
  8 25  2  0  0  0  0
  9 24  1  0  0  0  0
  9 27  1  0  0  0  0
  9 28  1  0  0  0  0
 10 11  1  0  0  0  0
 10 14  1  0  0  0  0
 10 17  1  0  0  0  0
 10 18  1  0  0  0  0
 11 12  1  0  0  0  0
 11 15  1  0  0  0  0
 11 37  1  0  0  0  0
 12 13  1  0  0  0  0
 12 38  1  0  0  0  0
 13 16  1  0  0  0  0
 13 19  1  0  0  0  0
 13 39  1  0  0  0  0
 14 16  1  0  0  0  0
 14 40  1  0  0  0  0
 14 41  1  0  0  0  0
 15 20  1  0  0  0  0
 15 22  1  0  0  0  0
 15 42  1  0  0  0  0
 16 43  1  0  0  0  0
 16 44  1  0  0  0  0
 17 21  1  0  0  0  0
 17 45  1  0  0  0  0
 17 46  1  0  0  0  0
 18 47  1  0  0  0  0
 18 48  1  0  0  0  0
 18 49  1  0  0  0  0
 19 23  1  0  0  0  0
 19 24  1  0  0  0  0
 19 50  1  0  0  0  0
 20 21  2  0  0  0  0
 22 51  1  0  0  0  0
 22 52  1  0  0  0  0
 22 53  1  0  0  0  0
 23 55  1  0  0  0  0
 23 56  1  0  0  0  0
 23 57  1  0  0  0  0
 25 26  1  0  0  0  0
 26 58  1  0  0  0  0
 26 59  1  0  0  0  0
 27 30  1  0  0  0  0
 27 60  1  0  0  0  0
 27 61  1  0  0  0  0
 28 62  1  0  0  0  0
 28 63  1  0  0  0  0
 28 64  1  0  0  0  0
 29 31  2  0  0  0  0
 29 32  1  0  0  0  0
 30 33  2  0  0  0  0
 30 65  1  0  0  0  0
 31 34  1  0  0  0  0
 31 66  1  0  0  0  0
 32 35  2  0  0  0  0
 32 67  1  0  0  0  0
 33 68  1  0  0  0  0
 33 69  1  0  0  0  0
 34 36  2  0  0  0  0
 34 70  1  0  0  0  0
 35 36  1  0  0  0  0
 35 71  1  0  0  0  0
M  END
> <PUBCHEM_COMPOUND_CID>
24148473

> <PUBCHEM_CONFORMER_RMSD>
1

> <PUBCHEM_CONFORMER_DIVERSEORDER>
1
57
66
35
74
86
92
130
120
6
68
129
67
103
32
126
124
107
70
43
94
136
137
28
31
69
121
91
133
47
117
125
114
123
21
63
122
52
131
59
119
115
93
49
39
77
90
127
101
102
23
110
96
85
78
95
76
53
45
132
64
58
18
104
116
34
109
87
60
29
20
27
118
5
44
65
25
111
38
36
22
8
48
80
40
24
54
99
112
81
105
71
46
62
128
108
97
42
56
98
26
89
12
134
14
7
73
72
37
113
41
19
33
50
106
88
10
4
79
3
83
82
100
55
84
9
16
51
17
30
135
13
15
61
75
11
2

> <PUBCHEM_MMFF94_PARTIAL_CHARGES>
36
1 -0.18
12 0.28
15 0.18
17 0.18
19 0.06
2 -0.08
20 0.05
21 -0.14
24 0.57
25 0.2
26 0.29
27 0.44
28 0.3
29 -0.01
3 1.2
30 -0.29
31 -0.15
32 -0.15
33 -0.3
34 -0.15
35 -0.15
36 0.18
4 -0.68
5 -0.57
54 0.4
6 -0.65
65 0.15
66 0.15
67 0.15
68 0.15
69 0.15
7 -0.65
70 0.15
71 0.15
8 -0.57
9 -0.66

> <PUBCHEM_EFFECTIVE_ROTOR_COUNT>
9.2

> <PUBCHEM_PHARMACOPHORE_FEATURES>
12
1 23 hydrophobe
1 33 hydrophobe
1 4 acceptor
1 4 donor
1 5 acceptor
1 6 acceptor
1 7 acceptor
1 8 acceptor
5 2 8 20 21 25 rings
6 10 11 12 13 14 16 rings
6 10 11 15 17 20 21 rings
6 29 31 32 34 35 36 rings

> <PUBCHEM_HEAVY_ATOM_COUNT>
36

> <PUBCHEM_ATOM_DEF_STEREO_COUNT>
5

> <PUBCHEM_ATOM_UDEF_STEREO_COUNT>
1

> <PUBCHEM_BOND_DEF_STEREO_COUNT>
0

> <PUBCHEM_BOND_UDEF_STEREO_COUNT>
0

> <PUBCHEM_ISOTOPIC_ATOM_COUNT>
0

> <PUBCHEM_COMPONENT_COUNT>
1

> <PUBCHEM_CACTVS_TAUTO_COUNT>
1

> <PUBCHEM_CONFORMER_ID>
017079F900000001

> <PUBCHEM_MMFF94_ENERGY>
88.0614

> <PUBCHEM_FEATURE_SELFOVERLAP>
60.996

> <PUBCHEM_SHAPE_FINGERPRINT>
10076449 9 17821449053682716141
10162869 55 16298107606082016350
10190206 1 12179835096777198647
10533779 47 17275118223185194006
11135926 11 18272082778125784951
11456790 92 17060342937228827354
11578821 258 10303807696663061562
11672396 167 18340205310922963351
11756154 67 18408041822874051949
12013929 94 18410859880293295706
12106331 60 18341321219949606297
12758862 56 18341323457332233840
13782708 43 17967810596455468179
13811026 1 18413672409240420318
14118638 360 17677607567499893152
14202775 3 18341054013730628294
15461852 350 17313105228922027044
1818759 1 18412548700104476170
18335252 98 18272370837914866686
18608769 82 18413106173827324390
20105231 36 18413108360377336102
21150785 3 16008750191150311624
21267235 1 18342175557922784944
21585481 151 18412547639248054715
21781051 124 18340216275045873582
21781055 127 16916525708567981064
21792961 116 18334853905941070317
21792965 169 18335703905031663518
21927370 108 18343308045756215361
23559900 14 18271513308417535672
23576562 1 12974473091903798026
24771293 8 11963387410438216102
2747138 104 18343015588668863592
3178227 256 18202286921965111089
335352 9 18272643545787446157
335507 130 18201998820914192164
3383291 50 18411981385858426539
3711267 37 10591758827031194354
4339292 15 18187077404348427295
4461854 278 17632579370633928942
54039377 194 18408606976034575350
57303763 39 18270403931540063662
6201320 215 13829863348294125211
636775 8 18335143098209107430
9962374 69 18339918320437572340

> <PUBCHEM_SHAPE_MULTIPOLES>
716.99
33.31
2.73
1.39
43.44
1.18
0.05
21.83
-5.01
-5.72
-0.38
-1.16
-0.09
2.17

> <PUBCHEM_SHAPE_SELFOVERLAP>
1481.914

> <PUBCHEM_SHAPE_VOLUME>
415.5

> <PUBCHEM_COORDINATE_TYPE>
2
5
10

$$$$
