40533457
  -OEChem-12032416113D

 55 59  0     1  0  0  0  0  0999 V2000
   -3.0207   -0.4594    2.1064 O   0  0  0  0  0  0  0  0  0  0  0  0
    1.9617    1.4443    1.6964 O   0  0  0  0  0  0  0  0  0  0  0  0
   -2.8284    0.9542    0.2728 N   0  0  0  0  0  0  0  0  0  0  0  0
    0.2463    1.8104    0.1591 N   0  0  0  0  0  0  0  0  0  0  0  0
    5.8292   -0.5782   -0.4915 N   0  0  0  0  0  0  0  0  0  0  0  0
   -1.8305    3.1999    0.7178 C   0  0  1  0  0  0  0  0  0  0  0  0
   -1.6033    2.1842   -1.5097 C   0  0  2  0  0  0  0  0  0  0  0  0
   -1.8619    3.4984   -0.7762 C   0  0  0  0  0  0  0  0  0  0  0  0
   -2.9123    2.1695    1.0851 C   0  0  0  0  0  0  0  0  0  0  0  0
   -2.7222    1.1777   -1.1769 C   0  0  0  0  0  0  0  0  0  0  0  0
   -0.4247    2.7200    1.0979 C   0  0  0  0  0  0  0  0  0  0  0  0
   -0.2563    1.6003   -1.1271 C   0  0  0  0  0  0  0  0  0  0  0  0
   -2.9264   -1.4887   -0.0156 C   0  0  0  0  0  0  0  0  0  0  0  0
   -2.9325   -0.2937    0.8872 C   0  0  0  0  0  0  0  0  0  0  0  0
   -3.7790   -2.5956    0.6071 C   0  0  0  0  0  0  0  0  0  0  0  0
   -1.4891   -1.9542   -0.2531 C   0  0  0  0  0  0  0  0  0  0  0  0
   -3.7303   -3.8755   -0.2234 C   0  0  0  0  0  0  0  0  0  0  0  0
   -1.4453   -3.2334   -1.0851 C   0  0  0  0  0  0  0  0  0  0  0  0
    0.4364    0.8616   -2.0085 C   0  0  0  0  0  0  0  0  0  0  0  0
    1.4697    1.2545    0.5827 C   0  0  0  0  0  0  0  0  0  0  0  0
   -2.2956   -4.3376   -0.4630 C   0  0  0  0  0  0  0  0  0  0  0  0
    2.2052    0.4013   -0.4155 C   0  0  0  0  0  0  0  0  0  0  0  0
    1.6824    0.2510   -1.6416 C   0  0  0  0  0  0  0  0  0  0  0  0
    3.4702   -0.2664   -0.0633 C   0  0  0  0  0  0  0  0  0  0  0  0
    3.5312   -1.1828    0.9808 C   0  0  0  0  0  0  0  0  0  0  0  0
    4.6369   -0.0012   -0.7622 C   0  0  0  0  0  0  0  0  0  0  0  0
    4.7397   -1.7972    1.2895 C   0  0  0  0  0  0  0  0  0  0  0  0
    5.8495   -1.4635    0.5300 C   0  0  0  0  0  0  0  0  0  0  0  0
   -2.0436    4.1175    1.2802 H   0  0  0  0  0  0  0  0  0  0  0  0
   -1.6271    2.3850   -2.5887 H   0  0  0  0  0  0  0  0  0  0  0  0
   -1.1031    4.2466   -1.0374 H   0  0  0  0  0  0  0  0  0  0  0  0
   -2.8355    3.9135   -1.0639 H   0  0  0  0  0  0  0  0  0  0  0  0
   -2.8569    1.9274    2.1517 H   0  0  0  0  0  0  0  0  0  0  0  0
   -3.9067    2.5970    0.9065 H   0  0  0  0  0  0  0  0  0  0  0  0
   -3.6923    1.5680   -1.5084 H   0  0  0  0  0  0  0  0  0  0  0  0
   -2.5387    0.2631   -1.7400 H   0  0  0  0  0  0  0  0  0  0  0  0
    0.2338    3.5956    1.1818 H   0  0  0  0  0  0  0  0  0  0  0  0
   -0.4333    2.2536    2.0912 H   0  0  0  0  0  0  0  0  0  0  0  0
   -3.4157   -1.2642   -0.9672 H   0  0  0  0  0  0  0  0  0  0  0  0
   -4.8195   -2.2622    0.7067 H   0  0  0  0  0  0  0  0  0  0  0  0
   -3.4305   -2.8326    1.6210 H   0  0  0  0  0  0  0  0  0  0  0  0
   -0.9872   -2.1290    0.7078 H   0  0  0  0  0  0  0  0  0  0  0  0
   -0.9112   -1.1826   -0.7611 H   0  0  0  0  0  0  0  0  0  0  0  0
   -4.2239   -3.7035   -1.1879 H   0  0  0  0  0  0  0  0  0  0  0  0
   -4.2923   -4.6670    0.2852 H   0  0  0  0  0  0  0  0  0  0  0  0
   -0.4085   -3.5756   -1.1799 H   0  0  0  0  0  0  0  0  0  0  0  0
   -1.8060   -3.0212   -2.0991 H   0  0  0  0  0  0  0  0  0  0  0  0
    0.0633    0.6740   -3.0099 H   0  0  0  0  0  0  0  0  0  0  0  0
   -2.2956   -5.2161   -1.1179 H   0  0  0  0  0  0  0  0  0  0  0  0
   -1.8489   -4.6486    0.4894 H   0  0  0  0  0  0  0  0  0  0  0  0
    2.1650   -0.3587   -2.3998 H   0  0  0  0  0  0  0  0  0  0  0  0
    2.6460   -1.4329    1.5599 H   0  0  0  0  0  0  0  0  0  0  0  0
    4.6613    0.7075   -1.5851 H   0  0  0  0  0  0  0  0  0  0  0  0
    4.8106   -2.5154    2.0983 H   0  0  0  0  0  0  0  0  0  0  0  0
    6.8155   -1.9150    0.7303 H   0  0  0  0  0  0  0  0  0  0  0  0
  1 14  2  0  0  0  0
  2 20  2  0  0  0  0
  3  9  1  0  0  0  0
  3 10  1  0  0  0  0
  3 14  1  0  0  0  0
  4 11  1  0  0  0  0
  4 12  1  0  0  0  0
  4 20  1  0  0  0  0
  5 26  1  0  0  0  0
  5 28  2  0  0  0  0
  6  8  1  0  0  0  0
  6  9  1  0  0  0  0
  6 11  1  0  0  0  0
  6 29  1  0  0  0  0
  7  8  1  0  0  0  0
  7 10  1  0  0  0  0
  7 12  1  0  0  0  0
  7 30  1  0  0  0  0
  8 31  1  0  0  0  0
  8 32  1  0  0  0  0
  9 33  1  0  0  0  0
  9 34  1  0  0  0  0
 10 35  1  0  0  0  0
 10 36  1  0  0  0  0
 11 37  1  0  0  0  0
 11 38  1  0  0  0  0
 12 19  2  0  0  0  0
 13 14  1  0  0  0  0
 13 15  1  0  0  0  0
 13 16  1  0  0  0  0
 13 39  1  0  0  0  0
 15 17  1  0  0  0  0
 15 40  1  0  0  0  0
 15 41  1  0  0  0  0
 16 18  1  0  0  0  0
 16 42  1  0  0  0  0
 16 43  1  0  0  0  0
 17 21  1  0  0  0  0
 17 44  1  0  0  0  0
 17 45  1  0  0  0  0
 18 21  1  0  0  0  0
 18 46  1  0  0  0  0
 18 47  1  0  0  0  0
 19 23  1  0  0  0  0
 19 48  1  0  0  0  0
 20 22  1  0  0  0  0
 21 49  1  0  0  0  0
 21 50  1  0  0  0  0
 22 23  2  0  0  0  0
 22 24  1  0  0  0  0
 23 51  1  0  0  0  0
 24 25  1  0  0  0  0
 24 26  2  0  0  0  0
 25 27  2  0  0  0  0
 25 52  1  0  0  0  0
 26 53  1  0  0  0  0
 27 28  1  0  0  0  0
 27 54  1  0  0  0  0
 28 55  1  0  0  0  0
M  END
> <PUBCHEM_COMPOUND_CID>
40533457

> <PUBCHEM_CONFORMER_RMSD>
0.8

> <PUBCHEM_CONFORMER_DIVERSEORDER>
1
10
18
16
4
19
6
7
11
12
5
15
17
9
13
8
2
14
3

> <PUBCHEM_MMFF94_PARTIAL_CHARGES>
27
1 -0.57
10 0.3
11 0.3
12 -0.03
13 0.06
14 0.57
19 -0.15
2 -0.57
20 0.62
22 -0.01
23 -0.15
24 0.03
25 -0.15
26 0.16
27 -0.15
28 0.16
3 -0.66
4 -0.47
48 0.15
5 -0.62
51 0.15
52 0.15
53 0.15
54 0.15
55 0.15
7 0.14
9 0.3

> <PUBCHEM_EFFECTIVE_ROTOR_COUNT>
5.2

> <PUBCHEM_PHARMACOPHORE_FEATURES>
8
1 1 acceptor
1 2 acceptor
1 5 acceptor
6 13 15 16 17 18 21 rings
6 3 6 7 8 9 10 rings
6 4 12 19 20 22 23 rings
6 4 6 7 8 11 12 rings
6 5 24 25 26 27 28 rings

> <PUBCHEM_HEAVY_ATOM_COUNT>
28

> <PUBCHEM_ATOM_DEF_STEREO_COUNT>
2

> <PUBCHEM_ATOM_UDEF_STEREO_COUNT>
0

> <PUBCHEM_BOND_DEF_STEREO_COUNT>
0

> <PUBCHEM_BOND_UDEF_STEREO_COUNT>
0

> <PUBCHEM_ISOTOPIC_ATOM_COUNT>
0

> <PUBCHEM_COMPONENT_COUNT>
1

> <PUBCHEM_CACTVS_TAUTO_COUNT>
3

> <PUBCHEM_CONFORMER_ID>
026A7DD100000001

> <PUBCHEM_MMFF94_ENERGY>
70.4077

> <PUBCHEM_FEATURE_SELFOVERLAP>
42.164

> <PUBCHEM_SHAPE_FINGERPRINT>
10483366 6 18337370688257497071
10622 236 17895738639625780346
11014199 57 18122344841999173778
11049842 53 17108503488072628300
11552529 35 18410571769370397592
11578080 2 17970612194442774397
12293681 25 17906697609484332333
12422481 6 17830486919425892553
12523318 42 18339349782800270816
12633257 1 17988657297472209001
12788726 201 18336559299572396038
12969540 37 17690276436242120749
13004483 165 18338794636633685879
13009979 54 18261686972641074278
13103583 49 18129961059996189003
13631057 29 18336265734547219878
13726171 33 17913804792507002656
14020679 6 17631172978886390777
14100547 121 18265046938331172202
14114206 34 17240471537835077635
14659021 117 18188762968052054674
14844126 61 18408886217781409795
15927050 60 17766559046045410437
16728300 4 17824537470582483627
19319366 153 17034474946368899567
20511986 3 17749944458744488696
20775438 99 16967439977277277347
20775530 9 18194398020631061423
21421861 104 17332258992477510611
23559900 14 18336816555060050504
23569943 247 14332013543748698052
23728640 28 18337673010293032499
3027735 51 18197762333407610911
35225 105 18263904580240961415
4409770 3 18336259046845309813
463206 1 18118407473527225851
484985 159 18262786389595323751
508706 21 18270404884400376582
602551 16 18341897355716253254
7097593 13 17693655231132278359
9981440 41 18050567335726180585

> <PUBCHEM_SHAPE_MULTIPOLES>
549.55
9.38
4.9
1.62
15.21
2.63
0.05
7.1
-1.96
-6.8
0.25
-0.09
-0.54
-0.69

> <PUBCHEM_SHAPE_SELFOVERLAP>
1198.781

> <PUBCHEM_SHAPE_VOLUME>
289.7

> <PUBCHEM_COORDINATE_TYPE>
2
5
10

$$$$
