45361389
  -OEChem-12032416353D

 76 79  0     1  0  0  0  0  0999 V2000
    1.8725    0.9882   -1.6500 O   0  0  0  0  0  0  0  0  0  0  0  0
    6.1917   -1.7702   -0.5814 O   0  0  0  0  0  0  0  0  0  0  0  0
   -3.9313    1.1691    2.0132 O   0  0  0  0  0  0  0  0  0  0  0  0
   -9.2364    0.2519   -1.3128 O   0  0  0  0  0  0  0  0  0  0  0  0
   -3.0820   -0.0857    0.2583 N   0  0  0  0  0  0  0  0  0  0  0  0
    6.3620    0.5457   -0.5050 N   0  0  0  0  0  0  0  0  0  0  0  0
    0.8856   -1.5910    0.9861 C   0  0  1  0  0  0  0  0  0  0  0  0
    0.7637   -0.3170    0.0855 C   0  0  2  0  0  0  0  0  0  0  0  0
   -0.7018   -0.1535   -0.4562 C   0  0  1  0  0  0  0  0  0  0  0  0
    1.8833   -0.2806   -0.9942 C   0  0  2  0  0  0  0  0  0  0  0  0
    2.3069   -1.6598    1.5929 C   0  0  0  0  0  0  0  0  0  0  0  0
    3.2968   -0.4544   -0.3912 C   0  0  1  0  0  0  0  0  0  0  0  0
   -0.1202   -1.4802    2.1552 C   0  0  0  0  0  0  0  0  0  0  0  0
   -1.7118   -0.1188    0.7251 C   0  0  2  0  0  0  0  0  0  0  0  0
    3.4044   -1.6642    0.5370 C   0  0  0  0  0  0  0  0  0  0  0  0
   -1.5576   -1.2933    1.6910 C   0  0  0  0  0  0  0  0  0  0  0  0
    0.6150   -2.9005    0.2026 C   0  0  0  0  0  0  0  0  0  0  0  0
    4.3726   -0.5470   -1.4803 C   0  0  2  0  0  0  0  0  0  0  0  0
   -0.9001    1.0980   -1.3281 C   0  0  0  0  0  0  0  0  0  0  0  0
    4.1384   -1.7459   -2.3812 C   0  0  0  0  0  0  0  0  0  0  0  0
    5.7224   -0.6537   -0.8166 C   0  0  0  0  0  0  0  0  0  0  0  0
   -4.0857    0.5654    0.9547 C   0  0  0  0  0  0  0  0  0  0  0  0
    5.8493    1.8869   -0.8122 C   0  0  0  0  0  0  0  0  0  0  0  0
    7.6752    0.5247    0.1428 C   0  0  0  0  0  0  0  0  0  0  0  0
   -5.4433    0.4844    0.3569 C   0  0  0  0  0  0  0  0  0  0  0  0
    5.8078    2.7521    0.4455 C   0  0  0  0  0  0  0  0  0  0  0  0
    7.6677    1.3625    1.4186 C   0  0  0  0  0  0  0  0  0  0  0  0
    7.1652    2.7793    1.1464 C   0  0  0  0  0  0  0  0  0  0  0  0
   -6.5712    0.5774    1.1724 C   0  0  0  0  0  0  0  0  0  0  0  0
   -5.5902    0.3134   -1.0197 C   0  0  0  0  0  0  0  0  0  0  0  0
   -7.8458    0.4990    0.6116 C   0  0  0  0  0  0  0  0  0  0  0  0
   -6.8648    0.2350   -1.5806 C   0  0  0  0  0  0  0  0  0  0  0  0
   -7.9926    0.3278   -0.7650 C   0  0  0  0  0  0  0  0  0  0  0  0
  -10.3456    0.3548   -0.4213 C   0  0  0  0  0  0  0  0  0  0  0  0
    0.9361    0.5598    0.7303 H   0  0  0  0  0  0  0  0  0  0  0  0
   -0.9409   -1.0122   -1.0963 H   0  0  0  0  0  0  0  0  0  0  0  0
    1.6554   -1.0373   -1.7477 H   0  0  0  0  0  0  0  0  0  0  0  0
    2.4092   -2.5542    2.2209 H   0  0  0  0  0  0  0  0  0  0  0  0
    2.4660   -0.8000    2.2579 H   0  0  0  0  0  0  0  0  0  0  0  0
    3.5076    0.4378    0.2156 H   0  0  0  0  0  0  0  0  0  0  0  0
    0.1502   -0.6294    2.7949 H   0  0  0  0  0  0  0  0  0  0  0  0
   -0.0630   -2.3723    2.7918 H   0  0  0  0  0  0  0  0  0  0  0  0
   -1.5322    0.8043    1.2936 H   0  0  0  0  0  0  0  0  0  0  0  0
    3.3635   -2.6164    0.0047 H   0  0  0  0  0  0  0  0  0  0  0  0
    4.3546   -1.6540    1.0825 H   0  0  0  0  0  0  0  0  0  0  0  0
   -1.9265   -2.2159    1.2266 H   0  0  0  0  0  0  0  0  0  0  0  0
   -2.1951   -1.1368    2.5710 H   0  0  0  0  0  0  0  0  0  0  0  0
   -0.4029   -2.9568   -0.1914 H   0  0  0  0  0  0  0  0  0  0  0  0
    0.7541   -3.7731    0.8516 H   0  0  0  0  0  0  0  0  0  0  0  0
    1.2850   -3.0224   -0.6530 H   0  0  0  0  0  0  0  0  0  0  0  0
    4.3378    0.3100   -2.1549 H   0  0  0  0  0  0  0  0  0  0  0  0
   -0.5267    1.9960   -0.8253 H   0  0  0  0  0  0  0  0  0  0  0  0
   -1.9550    1.2668   -1.5673 H   0  0  0  0  0  0  0  0  0  0  0  0
   -0.3966    0.9908   -2.2929 H   0  0  0  0  0  0  0  0  0  0  0  0
   -3.3050   -0.6598   -0.5480 H   0  0  0  0  0  0  0  0  0  0  0  0
    2.0329    1.6755   -0.9811 H   0  0  0  0  0  0  0  0  0  0  0  0
    3.2178   -1.6609   -2.9646 H   0  0  0  0  0  0  0  0  0  0  0  0
    4.9508   -1.8103   -3.1173 H   0  0  0  0  0  0  0  0  0  0  0  0
    4.1340   -2.7109   -1.8690 H   0  0  0  0  0  0  0  0  0  0  0  0
    6.5248    2.3269   -1.5555 H   0  0  0  0  0  0  0  0  0  0  0  0
    4.8512    1.8889   -1.2446 H   0  0  0  0  0  0  0  0  0  0  0  0
    7.9785   -0.5006    0.3767 H   0  0  0  0  0  0  0  0  0  0  0  0
    8.4004    0.9255   -0.5753 H   0  0  0  0  0  0  0  0  0  0  0  0
    5.0550    2.3542    1.1373 H   0  0  0  0  0  0  0  0  0  0  0  0
    5.5035    3.7722    0.1865 H   0  0  0  0  0  0  0  0  0  0  0  0
    8.6753    1.3997    1.8467 H   0  0  0  0  0  0  0  0  0  0  0  0
    7.0155    0.8871    2.1619 H   0  0  0  0  0  0  0  0  0  0  0  0
    7.0867    3.3337    2.0881 H   0  0  0  0  0  0  0  0  0  0  0  0
    7.8908    3.3107    0.5185 H   0  0  0  0  0  0  0  0  0  0  0  0
   -6.4762    0.7059    2.2475 H   0  0  0  0  0  0  0  0  0  0  0  0
   -4.7397    0.2675   -1.6934 H   0  0  0  0  0  0  0  0  0  0  0  0
   -8.6782    0.5775    1.3025 H   0  0  0  0  0  0  0  0  0  0  0  0
   -6.9737    0.1085   -2.6544 H   0  0  0  0  0  0  0  0  0  0  0  0
  -10.3641   -0.4733    0.2953 H   0  0  0  0  0  0  0  0  0  0  0  0
  -10.3757    1.3320    0.0726 H   0  0  0  0  0  0  0  0  0  0  0  0
  -11.2549    0.2744   -1.0260 H   0  0  0  0  0  0  0  0  0  0  0  0
  1 10  1  0  0  0  0
  1 56  1  0  0  0  0
  2 21  2  0  0  0  0
  3 22  2  0  0  0  0
  4 33  1  0  0  0  0
  4 34  1  0  0  0  0
  5 14  1  0  0  0  0
  5 22  1  0  0  0  0
  5 55  1  0  0  0  0
  6 21  1  0  0  0  0
  6 23  1  0  0  0  0
  6 24  1  0  0  0  0
  7  8  1  0  0  0  0
  7 11  1  0  0  0  0
  7 13  1  0  0  0  0
  7 17  1  0  0  0  0
  8  9  1  0  0  0  0
  8 10  1  0  0  0  0
  8 35  1  0  0  0  0
  9 14  1  0  0  0  0
  9 19  1  0  0  0  0
  9 36  1  0  0  0  0
 10 12  1  0  0  0  0
 10 37  1  0  0  0  0
 11 15  1  0  0  0  0
 11 38  1  0  0  0  0
 11 39  1  0  0  0  0
 12 15  1  0  0  0  0
 12 18  1  0  0  0  0
 12 40  1  0  0  0  0
 13 16  1  0  0  0  0
 13 41  1  0  0  0  0
 13 42  1  0  0  0  0
 14 16  1  0  0  0  0
 14 43  1  0  0  0  0
 15 44  1  0  0  0  0
 15 45  1  0  0  0  0
 16 46  1  0  0  0  0
 16 47  1  0  0  0  0
 17 48  1  0  0  0  0
 17 49  1  0  0  0  0
 17 50  1  0  0  0  0
 18 20  1  0  0  0  0
 18 21  1  0  0  0  0
 18 51  1  0  0  0  0
 19 52  1  0  0  0  0
 19 53  1  0  0  0  0
 19 54  1  0  0  0  0
 20 57  1  0  0  0  0
 20 58  1  0  0  0  0
 20 59  1  0  0  0  0
 22 25  1  0  0  0  0
 23 26  1  0  0  0  0
 23 60  1  0  0  0  0
 23 61  1  0  0  0  0
 24 27  1  0  0  0  0
 24 62  1  0  0  0  0
 24 63  1  0  0  0  0
 25 29  2  0  0  0  0
 25 30  1  0  0  0  0
 26 28  1  0  0  0  0
 26 64  1  0  0  0  0
 26 65  1  0  0  0  0
 27 28  1  0  0  0  0
 27 66  1  0  0  0  0
 27 67  1  0  0  0  0
 28 68  1  0  0  0  0
 28 69  1  0  0  0  0
 29 31  1  0  0  0  0
 29 70  1  0  0  0  0
 30 32  2  0  0  0  0
 30 71  1  0  0  0  0
 31 33  2  0  0  0  0
 31 72  1  0  0  0  0
 32 33  1  0  0  0  0
 32 73  1  0  0  0  0
 34 74  1  0  0  0  0
 34 75  1  0  0  0  0
 34 76  1  0  0  0  0
M  END
> <PUBCHEM_COMPOUND_CID>
45361389

> <PUBCHEM_CONFORMER_RMSD>
1

> <PUBCHEM_CONFORMER_DIVERSEORDER>
1
12
20
35
19
23
14
16
10
39
17
38
21
32
34
24
25
7
36
33
9
37
30
22
8
31
2
18
27
28
13
26
15
11
4
5
29
3
6

> <PUBCHEM_MMFF94_PARTIAL_CHARGES>
26
1 -0.68
10 0.28
14 0.3
18 0.06
2 -0.57
21 0.57
22 0.54
23 0.3
24 0.3
25 0.09
29 -0.15
3 -0.57
30 -0.15
31 -0.15
32 -0.15
33 0.08
34 0.28
4 -0.36
5 -0.73
55 0.37
56 0.4
6 -0.66
70 0.15
71 0.15
72 0.15
73 0.15

> <PUBCHEM_EFFECTIVE_ROTOR_COUNT>
9.8

> <PUBCHEM_PHARMACOPHORE_FEATURES>
11
1 1 acceptor
1 1 donor
1 2 acceptor
1 20 hydrophobe
1 3 acceptor
1 4 acceptor
1 5 donor
6 25 29 30 31 32 33 rings
6 6 23 24 26 27 28 rings
6 7 8 10 11 12 15 rings
6 7 8 9 13 14 16 rings

> <PUBCHEM_HEAVY_ATOM_COUNT>
34

> <PUBCHEM_ATOM_DEF_STEREO_COUNT>
6

> <PUBCHEM_ATOM_UDEF_STEREO_COUNT>
1

> <PUBCHEM_BOND_DEF_STEREO_COUNT>
0

> <PUBCHEM_BOND_UDEF_STEREO_COUNT>
0

> <PUBCHEM_ISOTOPIC_ATOM_COUNT>
0

> <PUBCHEM_COMPONENT_COUNT>
1

> <PUBCHEM_CACTVS_TAUTO_COUNT>
2

> <PUBCHEM_CONFORMER_ID>
02B428ED00000001

> <PUBCHEM_MMFF94_ENERGY>
106.7212

> <PUBCHEM_FEATURE_SELFOVERLAP>
55.836

> <PUBCHEM_SHAPE_FINGERPRINT>
10 15 16877666790278262668
10299344 5 16558751200800579215
10533779 1 17914888980414660840
11135609 127 17846494877256574936
11146346 60 16153997962502965004
11719270 70 16660365865978830906
12089408 11 17704072872715316173
12522641 24 18261384526288584770
12838862 33 17676196988459525485
13165053 68 17487042616906654037
13383668 254 18200610167830207705
13617811 41 13758079606356592120
13673619 4 14620790488653150651
13811026 1 18186804720789410915
13947947 74 17530963550415442253
14040221 8 16343708699824712849
14347424 109 13912329010206342374
14359421 15 9006241061705441816
15131766 46 14059009423087208494
15183329 4 15051738572931901491
15669420 48 12967129428905632152
15684393 108 16702303438511791389
15840311 113 18273498970735367716
18365409 1 18129940204115587215
20157964 124 18131357397604783174
20554085 129 17749103404930921168
20771845 171 15985116201997336444
21049683 271 15626221321065222323
21150785 3 17275105033028676721
21362857 166 14620249524759215060
21403212 168 17821443573615416640
21792934 111 17168135715905366202
21792938 131 15719948009624475322
21859007 373 17168134646306023156
22224240 67 18260830405743457323
22899556 105 11166851753032581500
23522609 53 16270830890595380955
23528521 120 18200865267339003357
24893992 56 16370732556609617153
335352 9 17531257132203535302
34797466 226 18131357379570371695
4093350 32 18201723933842170638
4258327 124 17631736092306686892
439807 62 16343704292803105863
445580 126 17095519591445907457
445580 167 17846778511979330001
44880568 143 17631182896177015993
4760202 170 18410847764339188909
5470011 282 17632296761642679583
5776283 40 16702014327130837111
6057620 51 17346600759935636995
6201320 215 12108046870783988143

> <PUBCHEM_SHAPE_MULTIPOLES>
666.26
27.96
2.22
1.88
40.94
0
-0.03
-15.04
-3.64
-5.17
0.59
-0.3
0.29
1.69

> <PUBCHEM_SHAPE_SELFOVERLAP>
1396.996

> <PUBCHEM_SHAPE_VOLUME>
372.3

> <PUBCHEM_COORDINATE_TYPE>
2
5
10

$$$$
