11882964
  -OEChem-12032416313D

 85 89  0     1  0  0  0  0  0999 V2000
   -1.5664    3.2552    0.2638 S   0  0  0  0  0  0  0  0  0  0  0  0
   -7.7053   -1.4706   -1.0042 O   0  0  0  0  0  0  0  0  0  0  0  0
   -8.1265    0.3986    0.4355 O   0  0  0  0  0  0  0  0  0  0  0  0
    0.3717   -1.5570   -1.0130 O   0  0  0  0  0  0  0  0  0  0  0  0
    2.7015    1.3682    0.3518 O   0  0  0  0  0  0  0  0  0  0  0  0
    7.1530   -2.5551   -0.8867 O   0  0  0  0  0  0  0  0  0  0  0  0
   -0.2502    1.0285    0.2171 N   0  0  0  0  0  0  0  0  0  0  0  0
    0.9041   -2.8459    0.8462 N   0  0  0  0  0  0  0  0  0  0  0  0
    1.0462    3.0552    0.3629 N   0  0  0  0  0  0  0  0  0  0  0  0
    4.5927   -2.9040    0.3069 N   0  0  0  0  0  0  0  0  0  0  0  0
   -3.6283   -0.8219    0.3979 C   0  0  2  0  0  0  0  0  0  0  0  0
   -4.3919    0.3320   -0.3901 C   0  0  1  0  0  0  0  0  0  0  0  0
   -5.9553    0.1844   -0.5377 C   0  0  1  0  0  0  0  0  0  0  0  0
   -2.0722   -0.7083    0.0523 C   0  0  1  0  0  0  0  0  0  0  0  0
   -4.1375   -2.2033   -0.0894 C   0  0  0  0  0  0  0  0  0  0  0  0
   -6.2929   -1.2658   -0.9861 C   0  0  1  0  0  0  0  0  0  0  0  0
   -3.9375    1.7426    0.0859 C   0  0  0  0  0  0  0  0  0  0  0  0
   -5.6541   -2.3319   -0.1029 C   0  0  0  0  0  0  0  0  0  0  0  0
   -3.8230   -0.7332    1.9315 C   0  0  0  0  0  0  0  0  0  0  0  0
   -1.5962    0.7178    0.1585 C   0  0  0  0  0  0  0  0  0  0  0  0
   -6.7575    0.5714    0.7244 C   0  0  0  0  0  0  0  0  0  0  0  0
   -6.4515    1.1420   -1.6579 C   0  0  0  0  0  0  0  0  0  0  0  0
   -2.4489    1.8028    0.1534 C   0  0  0  0  0  0  0  0  0  0  0  0
   -1.1709   -1.6621    0.8479 C   0  0  0  0  0  0  0  0  0  0  0  0
    0.1016   -1.9927    0.1028 C   0  0  0  0  0  0  0  0  0  0  0  0
   -0.1162    2.3354    0.2828 C   0  0  0  0  0  0  0  0  0  0  0  0
    2.1829   -3.3324    0.3808 C   0  0  0  0  0  0  0  0  0  0  0  0
    2.3544    2.5438    0.3920 C   0  0  0  0  0  0  0  0  0  0  0  0
    3.3774    3.6388    0.4808 C   0  0  0  0  0  0  0  0  0  0  0  0
    3.3111   -2.3993    0.7954 C   0  0  0  0  0  0  0  0  0  0  0  0
    4.6031    3.1827    1.2751 C   0  0  0  0  0  0  0  0  0  0  0  0
    3.7333    4.1420   -0.9196 C   0  0  0  0  0  0  0  0  0  0  0  0
    5.5270    2.2542    0.4876 C   0  0  0  0  0  0  0  0  0  0  0  0
    4.6531    3.1897   -1.6821 C   0  0  0  0  0  0  0  0  0  0  0  0
    5.8951    2.8379   -0.8715 C   0  0  0  0  0  0  0  0  0  0  0  0
    4.7411   -2.6450   -1.1320 C   0  0  0  0  0  0  0  0  0  0  0  0
    5.7085   -2.2967    1.0455 C   0  0  0  0  0  0  0  0  0  0  0  0
    6.0900   -3.1696   -1.6158 C   0  0  0  0  0  0  0  0  0  0  0  0
    7.0348   -2.8284    0.5100 C   0  0  0  0  0  0  0  0  0  0  0  0
   -4.0165    0.2392   -1.4242 H   0  0  0  0  0  0  0  0  0  0  0  0
   -1.9864   -0.9583   -1.0159 H   0  0  0  0  0  0  0  0  0  0  0  0
   -3.7353   -3.0093    0.5346 H   0  0  0  0  0  0  0  0  0  0  0  0
   -3.7703   -2.3921   -1.1068 H   0  0  0  0  0  0  0  0  0  0  0  0
   -5.9408   -1.4111   -2.0160 H   0  0  0  0  0  0  0  0  0  0  0  0
   -4.2974    2.5086   -0.6091 H   0  0  0  0  0  0  0  0  0  0  0  0
   -4.3494    1.9740    1.0738 H   0  0  0  0  0  0  0  0  0  0  0  0
   -5.9267   -3.3256   -0.4811 H   0  0  0  0  0  0  0  0  0  0  0  0
   -6.0665   -2.2936    0.9114 H   0  0  0  0  0  0  0  0  0  0  0  0
   -3.2634   -1.5209    2.4481 H   0  0  0  0  0  0  0  0  0  0  0  0
   -4.8575   -0.8733    2.2381 H   0  0  0  0  0  0  0  0  0  0  0  0
   -3.4800    0.2196    2.3442 H   0  0  0  0  0  0  0  0  0  0  0  0
   -6.5958    1.6166    1.0049 H   0  0  0  0  0  0  0  0  0  0  0  0
   -6.5299   -0.0555    1.5828 H   0  0  0  0  0  0  0  0  0  0  0  0
   -7.4992    0.9646   -1.9256 H   0  0  0  0  0  0  0  0  0  0  0  0
   -6.3699    2.1930   -1.3615 H   0  0  0  0  0  0  0  0  0  0  0  0
   -5.8655    1.0096   -2.5749 H   0  0  0  0  0  0  0  0  0  0  0  0
   -0.9059   -1.2366    1.8241 H   0  0  0  0  0  0  0  0  0  0  0  0
   -1.6710   -2.6190    1.0282 H   0  0  0  0  0  0  0  0  0  0  0  0
   -7.8684   -2.3708   -1.3336 H   0  0  0  0  0  0  0  0  0  0  0  0
   -8.6250    0.6533    1.2305 H   0  0  0  0  0  0  0  0  0  0  0  0
    0.5936   -3.1441    1.7665 H   0  0  0  0  0  0  0  0  0  0  0  0
    0.9193    4.0634    0.3972 H   0  0  0  0  0  0  0  0  0  0  0  0
    2.1168   -3.4468   -0.7049 H   0  0  0  0  0  0  0  0  0  0  0  0
    2.3246   -4.3278    0.8165 H   0  0  0  0  0  0  0  0  0  0  0  0
    2.9277    4.4714    1.0389 H   0  0  0  0  0  0  0  0  0  0  0  0
    3.1228   -1.3736    0.4539 H   0  0  0  0  0  0  0  0  0  0  0  0
    3.3160   -2.3590    1.8932 H   0  0  0  0  0  0  0  0  0  0  0  0
    4.2991    2.6875    2.2054 H   0  0  0  0  0  0  0  0  0  0  0  0
    5.1774    4.0713    1.5686 H   0  0  0  0  0  0  0  0  0  0  0  0
    4.2392    5.1116   -0.8247 H   0  0  0  0  0  0  0  0  0  0  0  0
    2.8281    4.3193   -1.5129 H   0  0  0  0  0  0  0  0  0  0  0  0
    5.0761    1.2663    0.3530 H   0  0  0  0  0  0  0  0  0  0  0  0
    6.4434    2.0884    1.0669 H   0  0  0  0  0  0  0  0  0  0  0  0
    4.9531    3.6528   -2.6291 H   0  0  0  0  0  0  0  0  0  0  0  0
    4.1091    2.2726   -1.9383 H   0  0  0  0  0  0  0  0  0  0  0  0
    6.5073    3.7371   -0.7305 H   0  0  0  0  0  0  0  0  0  0  0  0
    6.5076    2.1190   -1.4274 H   0  0  0  0  0  0  0  0  0  0  0  0
    3.9614   -3.1427   -1.7159 H   0  0  0  0  0  0  0  0  0  0  0  0
    4.6796   -1.5672   -1.3332 H   0  0  0  0  0  0  0  0  0  0  0  0
    5.6828   -1.2043    0.9407 H   0  0  0  0  0  0  0  0  0  0  0  0
    5.6375   -2.5379    2.1123 H   0  0  0  0  0  0  0  0  0  0  0  0
    6.2278   -2.9239   -2.6737 H   0  0  0  0  0  0  0  0  0  0  0  0
    6.1599   -4.2598   -1.5167 H   0  0  0  0  0  0  0  0  0  0  0  0
    7.1376   -3.9068    0.6820 H   0  0  0  0  0  0  0  0  0  0  0  0
    7.8677   -2.3314    1.0177 H   0  0  0  0  0  0  0  0  0  0  0  0
  1 23  1  0  0  0  0
  1 26  1  0  0  0  0
  2 16  1  0  0  0  0
  2 59  1  0  0  0  0
  3 21  1  0  0  0  0
  3 60  1  0  0  0  0
  4 25  2  0  0  0  0
  5 28  2  0  0  0  0
  6 38  1  0  0  0  0
  6 39  1  0  0  0  0
  7 20  1  0  0  0  0
  7 26  2  0  0  0  0
  8 25  1  0  0  0  0
  8 27  1  0  0  0  0
  8 61  1  0  0  0  0
  9 26  1  0  0  0  0
  9 28  1  0  0  0  0
  9 62  1  0  0  0  0
 10 30  1  0  0  0  0
 10 36  1  0  0  0  0
 10 37  1  0  0  0  0
 11 12  1  0  0  0  0
 11 14  1  0  0  0  0
 11 15  1  0  0  0  0
 11 19  1  0  0  0  0
 12 13  1  0  0  0  0
 12 17  1  0  0  0  0
 12 40  1  0  0  0  0
 13 16  1  0  0  0  0
 13 21  1  0  0  0  0
 13 22  1  0  0  0  0
 14 20  1  0  0  0  0
 14 24  1  0  0  0  0
 14 41  1  0  0  0  0
 15 18  1  0  0  0  0
 15 42  1  0  0  0  0
 15 43  1  0  0  0  0
 16 18  1  0  0  0  0
 16 44  1  0  0  0  0
 17 23  1  0  0  0  0
 17 45  1  0  0  0  0
 17 46  1  0  0  0  0
 18 47  1  0  0  0  0
 18 48  1  0  0  0  0
 19 49  1  0  0  0  0
 19 50  1  0  0  0  0
 19 51  1  0  0  0  0
 20 23  2  0  0  0  0
 21 52  1  0  0  0  0
 21 53  1  0  0  0  0
 22 54  1  0  0  0  0
 22 55  1  0  0  0  0
 22 56  1  0  0  0  0
 24 25  1  0  0  0  0
 24 57  1  0  0  0  0
 24 58  1  0  0  0  0
 27 30  1  0  0  0  0
 27 63  1  0  0  0  0
 27 64  1  0  0  0  0
 28 29  1  0  0  0  0
 29 31  1  0  0  0  0
 29 32  1  0  0  0  0
 29 65  1  0  0  0  0
 30 66  1  0  0  0  0
 30 67  1  0  0  0  0
 31 33  1  0  0  0  0
 31 68  1  0  0  0  0
 31 69  1  0  0  0  0
 32 34  1  0  0  0  0
 32 70  1  0  0  0  0
 32 71  1  0  0  0  0
 33 35  1  0  0  0  0
 33 72  1  0  0  0  0
 33 73  1  0  0  0  0
 34 35  1  0  0  0  0
 34 74  1  0  0  0  0
 34 75  1  0  0  0  0
 35 76  1  0  0  0  0
 35 77  1  0  0  0  0
 36 38  1  0  0  0  0
 36 78  1  0  0  0  0
 36 79  1  0  0  0  0
 37 39  1  0  0  0  0
 37 80  1  0  0  0  0
 37 81  1  0  0  0  0
 38 82  1  0  0  0  0
 38 83  1  0  0  0  0
 39 84  1  0  0  0  0
 39 85  1  0  0  0  0
M  END
> <PUBCHEM_COMPOUND_CID>
11882964

> <PUBCHEM_CONFORMER_RMSD>
1.2

> <PUBCHEM_CONFORMER_DIVERSEORDER>
1
31
12
30
35
19
16
11
38
4
14
36
18
34
33
26
22
2
27
17
24
3
10
9
8
29
25
13
21
32
7
37
15
39
23
28
6
20
5

> <PUBCHEM_MMFF94_PARTIAL_CHARGES>
31
1 -0.08
10 -0.81
14 0.18
16 0.28
17 0.18
2 -0.68
20 0.05
21 0.28
23 -0.14
24 0.06
25 0.57
26 0.44
27 0.3
28 0.57
29 0.06
3 -0.68
30 0.27
36 0.27
37 0.27
38 0.28
39 0.28
4 -0.57
5 -0.57
59 0.4
6 -0.56
60 0.4
61 0.37
62 0.37
7 -0.57
8 -0.73
9 -0.49

> <PUBCHEM_EFFECTIVE_ROTOR_COUNT>
13.6

> <PUBCHEM_PHARMACOPHORE_FEATURES>
15
1 10 cation
1 2 acceptor
1 2 donor
1 3 acceptor
1 3 donor
1 4 acceptor
1 5 acceptor
1 6 acceptor
1 8 donor
1 9 donor
5 1 7 20 23 26 rings
6 11 12 13 15 16 18 rings
6 11 12 14 17 20 23 rings
6 29 31 32 33 34 35 rings
6 6 10 36 37 38 39 rings

> <PUBCHEM_HEAVY_ATOM_COUNT>
39

> <PUBCHEM_ATOM_DEF_STEREO_COUNT>
5

> <PUBCHEM_ATOM_UDEF_STEREO_COUNT>
0

> <PUBCHEM_BOND_DEF_STEREO_COUNT>
0

> <PUBCHEM_BOND_UDEF_STEREO_COUNT>
0

> <PUBCHEM_ISOTOPIC_ATOM_COUNT>
0

> <PUBCHEM_COMPONENT_COUNT>
1

> <PUBCHEM_CACTVS_TAUTO_COUNT>
6

> <PUBCHEM_CONFORMER_ID>
00B551D400000001

> <PUBCHEM_MMFF94_ENERGY>
95.0965

> <PUBCHEM_FEATURE_SELFOVERLAP>
76.269

> <PUBCHEM_SHAPE_FINGERPRINT>
10050765 1 18337953523224339019
10290309 65 17904496438771927832
11017883 126 17968381264560729172
11135926 11 18338791317209775541
11578080 2 17387944579463300085
12107698 1 18340205194077735322
12677640 9 18055073160158050176
12857493 111 18341891827466297353
13533116 47 18412825798214541856
13560911 43 18187922825467683992
13811026 1 18409157801369127720
14068700 675 18341048502553331688
15183329 4 18043242634249717437
15264996 44 18272378581593111518
15351339 4 18408611349498212576
15400415 2 17833830852035378568
15444296 7 18059564803102091110
15927050 60 18123748913920780278
16067689 302 18339647853784489511
16628084 112 18410291402137079708
18738133 686 18339060645992178048
20609170 92 18187634800033545941
20642791 35 18336260163547759011
20721686 56 18408604768453170602
20771845 171 18041562562748283773
21344244 246 18338793533106802103
22311459 1 18337953381168729915
23559900 14 18339631262103746659
24771750 20 18262810665129756550
3298306 158 18268149936618008908
335352 9 18266732499554041655
4573279 73 18197766898478168999
59755656 215 18339360893585707909
99344 41 18409725205415131672
9961470 85 18267860761060121842

> <PUBCHEM_SHAPE_MULTIPOLES>
757.18
20.62
5.87
1.28
9.17
1.53
0.18
-7.51
4.54
-12.73
0.37
-0.44
-0.06
0.03

> <PUBCHEM_SHAPE_SELFOVERLAP>
1575.034

> <PUBCHEM_SHAPE_VOLUME>
433

> <PUBCHEM_COORDINATE_TYPE>
2
5
10

$$$$
