11886014
  -OEChem-12032416373D

 58 62  0     1  0  0  0  0  0999 V2000
   -5.9403    0.0803   -0.2650 S   0  0  0  0  0  0  0  0  0  0  0  0
   -0.3893   -0.0807   -1.1621 O   0  0  0  0  0  0  0  0  0  0  0  0
   -2.1989   -2.3500   -0.0983 O   0  0  0  0  0  0  0  0  0  0  0  0
    1.3399   -1.8343    0.1047 O   0  0  0  0  0  0  0  0  0  0  0  0
    1.8234   -0.0649    1.4707 O   0  0  0  0  0  0  0  0  0  0  0  0
   -9.6383    0.5350   -0.4508 O   0  0  0  0  0  0  0  0  0  0  0  0
    9.2419    0.5605   -0.1495 O   0  0  0  0  0  0  0  0  0  0  0  0
    8.3721   -1.1816   -1.3773 O   0  0  0  0  0  0  0  0  0  0  0  0
   -3.4273    1.0612   -0.6201 N   0  0  0  0  0  0  0  0  0  0  0  0
   -2.7222    2.1952   -0.5456 N   0  0  0  0  0  0  0  0  0  0  0  0
   -4.8514    2.5661    0.0014 N   0  0  0  0  0  0  0  0  0  0  0  0
   -3.6000    3.1151   -0.1645 N   0  0  0  0  0  0  0  0  0  0  0  0
    3.4627   -1.0726    0.1375 N   0  0  0  0  0  0  0  0  0  0  0  0
   -2.1719   -0.9289    0.1605 C   0  0  1  0  0  0  0  0  0  0  0  0
   -0.7142   -0.5130    0.1684 C   0  0  1  0  0  0  0  0  0  0  0  0
   -2.7726   -0.1872   -1.0179 C   0  0  2  0  0  0  0  0  0  0  0  0
   -0.0041   -1.7965    0.5275 C   0  0  1  0  0  0  0  0  0  0  0  0
   -1.5820   -0.0299   -1.9582 C   0  0  0  0  0  0  0  0  0  0  0  0
   -0.8508   -2.8339   -0.1726 C   0  0  0  0  0  0  0  0  0  0  0  0
   -4.7201    1.2917   -0.2871 C   0  0  0  0  0  0  0  0  0  0  0  0
    2.1930   -0.8989    0.6531 C   0  0  0  0  0  0  0  0  0  0  0  0
   -7.3960    1.0389    0.2507 C   0  0  0  0  0  0  0  0  0  0  0  0
    4.6300   -0.3310    0.4300 C   0  0  0  0  0  0  0  0  0  0  0  0
   -8.6159    0.1683    0.3421 C   0  0  0  0  0  0  0  0  0  0  0  0
    5.8208   -0.6624   -0.1967 C   0  0  0  0  0  0  0  0  0  0  0  0
    4.5608    0.7133    1.3384 C   0  0  0  0  0  0  0  0  0  0  0  0
   -8.8929   -0.9325    1.0794 C   0  0  0  0  0  0  0  0  0  0  0  0
    6.9723    0.0697    0.0924 C   0  0  0  0  0  0  0  0  0  0  0  0
    5.7123    1.4456    1.6275 C   0  0  0  0  0  0  0  0  0  0  0  0
    6.9181    1.1237    1.0045 C   0  0  0  0  0  0  0  0  0  0  0  0
  -10.2127   -1.2958    0.7197 C   0  0  0  0  0  0  0  0  0  0  0  0
  -10.6218   -0.3723   -0.2140 C   0  0  0  0  0  0  0  0  0  0  0  0
    8.2297   -0.2652   -0.5567 C   0  0  0  0  0  0  0  0  0  0  0  0
   10.5342    0.3307   -0.7212 C   0  0  0  0  0  0  0  0  0  0  0  0
   11.5117    1.3363   -0.1509 C   0  0  0  0  0  0  0  0  0  0  0  0
   -2.6752   -0.7603    1.1177 H   0  0  0  0  0  0  0  0  0  0  0  0
   -0.5218    0.3236    0.8453 H   0  0  0  0  0  0  0  0  0  0  0  0
   -3.5368   -0.7765   -1.5369 H   0  0  0  0  0  0  0  0  0  0  0  0
   -0.0638   -1.9697    1.6104 H   0  0  0  0  0  0  0  0  0  0  0  0
   -1.5322   -0.8749   -2.6544 H   0  0  0  0  0  0  0  0  0  0  0  0
   -1.5885    0.8894   -2.5514 H   0  0  0  0  0  0  0  0  0  0  0  0
   -0.5742   -2.9562   -1.2258 H   0  0  0  0  0  0  0  0  0  0  0  0
   -0.7856   -3.8161    0.3049 H   0  0  0  0  0  0  0  0  0  0  0  0
    3.5738   -1.8265   -0.5362 H   0  0  0  0  0  0  0  0  0  0  0  0
   -7.2064    1.4884    1.2316 H   0  0  0  0  0  0  0  0  0  0  0  0
   -7.5650    1.8493   -0.4670 H   0  0  0  0  0  0  0  0  0  0  0  0
    5.8524   -1.4857   -0.9061 H   0  0  0  0  0  0  0  0  0  0  0  0
    3.6660    1.0213    1.8593 H   0  0  0  0  0  0  0  0  0  0  0  0
   -8.2476   -1.4265    1.7914 H   0  0  0  0  0  0  0  0  0  0  0  0
    5.6708    2.2665    2.3377 H   0  0  0  0  0  0  0  0  0  0  0  0
    7.7886    1.7211    1.2605 H   0  0  0  0  0  0  0  0  0  0  0  0
  -10.7933   -2.1263    1.0945 H   0  0  0  0  0  0  0  0  0  0  0  0
  -11.5341   -0.2298   -0.7747 H   0  0  0  0  0  0  0  0  0  0  0  0
   10.4758    0.4449   -1.8092 H   0  0  0  0  0  0  0  0  0  0  0  0
   10.8631   -0.6859   -0.4794 H   0  0  0  0  0  0  0  0  0  0  0  0
   11.5653    1.2458    0.9390 H   0  0  0  0  0  0  0  0  0  0  0  0
   11.1843    2.3582   -0.3690 H   0  0  0  0  0  0  0  0  0  0  0  0
   12.5120    1.1891   -0.5674 H   0  0  0  0  0  0  0  0  0  0  0  0
  1 20  1  0  0  0  0
  1 22  1  0  0  0  0
  2 15  1  0  0  0  0
  2 18  1  0  0  0  0
  3 14  1  0  0  0  0
  3 19  1  0  0  0  0
  4 17  1  0  0  0  0
  4 21  1  0  0  0  0
  5 21  2  0  0  0  0
  6 24  1  0  0  0  0
  6 32  1  0  0  0  0
  7 33  1  0  0  0  0
  7 34  1  0  0  0  0
  8 33  2  0  0  0  0
  9 10  1  0  0  0  0
  9 16  1  0  0  0  0
  9 20  1  0  0  0  0
 10 12  2  0  0  0  0
 11 12  1  0  0  0  0
 11 20  2  0  0  0  0
 13 21  1  0  0  0  0
 13 23  1  0  0  0  0
 13 44  1  0  0  0  0
 14 15  1  0  0  0  0
 14 16  1  0  0  0  0
 14 36  1  0  0  0  0
 15 17  1  0  0  0  0
 15 37  1  0  0  0  0
 16 18  1  0  0  0  0
 16 38  1  0  0  0  0
 17 19  1  0  0  0  0
 17 39  1  0  0  0  0
 18 40  1  0  0  0  0
 18 41  1  0  0  0  0
 19 42  1  0  0  0  0
 19 43  1  0  0  0  0
 22 24  1  0  0  0  0
 22 45  1  0  0  0  0
 22 46  1  0  0  0  0
 23 25  1  0  0  0  0
 23 26  2  0  0  0  0
 24 27  2  0  0  0  0
 25 28  2  0  0  0  0
 25 47  1  0  0  0  0
 26 29  1  0  0  0  0
 26 48  1  0  0  0  0
 27 31  1  0  0  0  0
 27 49  1  0  0  0  0
 28 30  1  0  0  0  0
 28 33  1  0  0  0  0
 29 30  2  0  0  0  0
 29 50  1  0  0  0  0
 30 51  1  0  0  0  0
 31 32  2  0  0  0  0
 31 52  1  0  0  0  0
 32 53  1  0  0  0  0
 34 35  1  0  0  0  0
 34 54  1  0  0  0  0
 34 55  1  0  0  0  0
 35 56  1  0  0  0  0
 35 57  1  0  0  0  0
 35 58  1  0  0  0  0
M  END
> <PUBCHEM_COMPOUND_CID>
11886014

> <PUBCHEM_CONFORMER_RMSD>
1.2

> <PUBCHEM_CONFORMER_DIVERSEORDER>
2
75
118
71
91
259
270
55
243
161
279
177
202
96
257
108
264
49
274
283
84
136
271
159
110
195
273
37
284
240
68
235
165
278
114
156
237
66
251
230
172
158
52
36
41
266
104
276
151
99
59
111
196
128
116
286
247
218
106
117
220
227
166
207
148
100
234
152
203
262
127
263
311
87
85
296
294
24
282
182
216
219
299
201
238
210
123
250
50
86
113
183
307
212
92
272
290
265
38
154
191
194
308
192
65
179
126
135
205
258
293
54
63
11
40
176
51
155
269
142
209
298
267
139
244
287
46
138
17
76
248
288
48
242
309
58
73
245
306
232
42
141
241
29
246
107
15
228
231
133
208
268
181
221
69
302
47
211
281
60
197
215
217
162
225
56
112
256
157
88
6
64
145
163
206
22
229
103
285
199
34
147
170
236
292
134
26
297
295
5
310
102
124
30
301
21
77
28
57
175
105
168
115
253
149
10
167
150
193
174
9
122
291
144
67
226
200
78
261
204
3
97
222
289
185
44
146
280
305
72
153
160
303
18
109
131
32
16
254
198
249
188
178
275
62
33
252
101
125
173
132
260
189
35
137
169
140
53
1
98
45
213
23
83
121
19
239
143
25
187
180
300
171
93
255
14
277
61
89
214
43
304
74
120
82
223
233
90
130
184
79
31
7
80
94
164
12
95
119
20
81
27
39
70
190
13
129
4
224
186
8

> <PUBCHEM_MMFF94_PARTIAL_CHARGES>
41
1 -0.29
10 -0.42
11 -0.34
13 -0.55
14 0.28
15 0.28
16 0.26
17 0.28
18 0.28
19 0.28
2 -0.56
20 0.24
21 0.78
22 0.41
23 0.12
24 -0.04
25 -0.15
26 -0.15
27 -0.15
28 0.09
29 -0.15
3 -0.56
30 -0.15
31 -0.15
32 -0.01
33 0.63
34 0.28
4 -0.43
44 0.37
47 0.15
48 0.15
49 0.15
5 -0.57
50 0.15
51 0.15
52 0.15
53 0.15
6 -0.28
7 -0.43
8 -0.57
9 0.31

> <PUBCHEM_EFFECTIVE_ROTOR_COUNT>
12.2

> <PUBCHEM_PHARMACOPHORE_FEATURES>
12
1 13 donor
1 2 acceptor
1 3 acceptor
1 5 acceptor
1 6 acceptor
1 8 acceptor
3 9 11 20 cation
5 2 14 15 16 18 rings
5 3 14 15 17 19 rings
5 6 24 27 31 32 rings
5 9 10 11 12 20 rings
6 23 25 26 28 29 30 rings

> <PUBCHEM_HEAVY_ATOM_COUNT>
35

> <PUBCHEM_ATOM_DEF_STEREO_COUNT>
4

> <PUBCHEM_ATOM_UDEF_STEREO_COUNT>
0

> <PUBCHEM_BOND_DEF_STEREO_COUNT>
0

> <PUBCHEM_BOND_UDEF_STEREO_COUNT>
0

> <PUBCHEM_ISOTOPIC_ATOM_COUNT>
0

> <PUBCHEM_COMPONENT_COUNT>
1

> <PUBCHEM_CACTVS_TAUTO_COUNT>
2

> <PUBCHEM_CONFORMER_ID>
00B55DBE00000002

> <PUBCHEM_MMFF94_ENERGY>
79.6179

> <PUBCHEM_FEATURE_SELFOVERLAP>
61.6

> <PUBCHEM_SHAPE_FINGERPRINT>
10 15 18259982665499480235
10076449 9 18060139829912640137
10165383 225 18411698785557689874
106641 1 17603304851958187863
10674148 151 11743834755761681687
11211813 128 18342739616341804575
12013929 94 18409451410699503619
12120059 9 12612757904187648177
12202916 173 8214140772049759729
12643181 29 9943517514754544205
12664476 115 18411417319761601664
12758862 56 11023814073075907127
13740195 50 18113340833814573298
13947947 19 17967535705131028932
14040221 8 9295290568664140370
14344974 52 18411699924303901632
15064986 266 18200589340864109294
15065858 18 8862936161013643988
15183329 4 16774075151168398218
15219648 73 13118266076593785120
15347591 1 17972593291362856587
15392192 104 17385722491526948042
15728490 51 18410009949711202671
15840311 113 17749113318274784940
18335252 98 18411702063161003547
18603816 31 12829500276822672233
18608769 82 18412821404889973891
20105231 36 18273213097432726559
21792934 111 8142080949335183510
22224240 67 18259701190913263563
24771293 8 18040720217552818765
2835820 33 18113340834542768475
3092352 35 15913607281609874927
4874694 18 11241968179053243144
5028188 123 17847057801402990071
59521270 166 11527957738128398187
59682541 35 18334575755332103395
6081469 158 8718830894412604979
6126387 218 11386367041597705737
6673363 416 18341896268858250233
6703917 75 18410864243421009635

> <PUBCHEM_SHAPE_MULTIPOLES>
658.14
40.07
2.17
1.18
13.16
0.31
-0.03
7.26
0.15
-1.9
0.02
0.73
0.07
1.65

> <PUBCHEM_SHAPE_SELFOVERLAP>
1412.379

> <PUBCHEM_SHAPE_VOLUME>
366.7

> <PUBCHEM_COORDINATE_TYPE>
2
5
10

$$$$
