38030429
  -OEChem-12032416373D

 60 62  0     1  0  0  0  0  0999 V2000
   -1.5543    1.8228   -0.5823 O   0  0  0  0  0  0  0  0  0  0  0  0
    2.0254   -2.6526    0.5768 N   0  0  2  0  0  0  0  0  0  0  0  0
   -0.5321    1.9721    1.4019 N   0  0  0  0  0  0  0  0  0  0  0  0
   -1.7538    1.3549    1.5961 N   0  0  0  0  0  0  0  0  0  0  0  0
   -2.5603   -4.0164   -0.2314 N   0  0  0  0  0  0  0  0  0  0  0  0
   -5.4517   -0.7065    0.4901 N   0  0  0  0  0  0  0  0  0  0  0  0
    2.9342   -0.2383   -0.8055 C   0  0  1  0  0  0  0  0  0  0  0  0
    3.0097   -0.4081    0.7298 C   0  0  1  0  0  0  0  0  0  0  0  0
    1.8149    0.7418   -1.1839 C   0  0  0  0  0  0  0  0  0  0  0  0
    1.9655    2.1277   -0.5208 C   0  0  2  0  0  0  0  0  0  0  0  0
    4.2828    0.2087   -1.3859 C   0  0  0  0  0  0  0  0  0  0  0  0
    2.4469    2.0493    0.9201 C   0  0  0  0  0  0  0  0  0  0  0  0
    2.8989    0.9040    1.4635 C   0  0  0  0  0  0  0  0  0  0  0  0
    1.9323   -1.3670    1.2468 C   0  0  0  0  0  0  0  0  0  0  0  0
    0.6405    2.8866   -0.6664 C   0  0  0  0  0  0  0  0  0  0  0  0
    5.3874   -0.7577   -0.9703 C   0  0  0  0  0  0  0  0  0  0  0  0
    4.1994    0.3138   -2.9053 C   0  0  0  0  0  0  0  0  0  0  0  0
    2.4596    3.3239    1.7186 C   0  0  0  0  0  0  0  0  0  0  0  0
   -0.4584    2.2270    0.1165 C   0  0  0  0  0  0  0  0  0  0  0  0
    0.7475   -3.3679    0.6424 C   0  0  0  0  0  0  0  0  0  0  0  0
    3.0904   -3.4704    1.1648 C   0  0  0  0  0  0  0  0  0  0  0  0
   -0.2493   -2.7665   -0.3450 C   0  0  0  0  0  0  0  0  0  0  0  0
   -2.3156    1.2890    0.4117 C   0  0  0  0  0  0  0  0  0  0  0  0
   -1.5401   -3.4657   -0.2807 C   0  0  0  0  0  0  0  0  0  0  0  0
   -3.5833    0.7512    0.0111 C   0  0  0  0  0  0  0  0  0  0  0  0
   -4.1766    1.1297   -1.1881 C   0  0  0  0  0  0  0  0  0  0  0  0
   -4.2557   -0.1619    0.8075 C   0  0  0  0  0  0  0  0  0  0  0  0
   -5.4067    0.5913   -1.5491 C   0  0  0  0  0  0  0  0  0  0  0  0
   -5.9974   -0.3147   -0.6830 C   0  0  0  0  0  0  0  0  0  0  0  0
    2.6940   -1.1978   -1.2805 H   0  0  0  0  0  0  0  0  0  0  0  0
    3.9693   -0.8283    1.0335 H   0  0  0  0  0  0  0  0  0  0  0  0
    0.8686    0.2749   -0.8861 H   0  0  0  0  0  0  0  0  0  0  0  0
    1.7206    0.8578   -2.2689 H   0  0  0  0  0  0  0  0  0  0  0  0
    2.7246    2.6906   -1.0809 H   0  0  0  0  0  0  0  0  0  0  0  0
    4.5656    1.1976   -1.0057 H   0  0  0  0  0  0  0  0  0  0  0  0
    3.2320    0.8999    2.4992 H   0  0  0  0  0  0  0  0  0  0  0  0
    0.9575   -0.8901    1.0997 H   0  0  0  0  0  0  0  0  0  0  0  0
    2.0170   -1.4868    2.3369 H   0  0  0  0  0  0  0  0  0  0  0  0
    0.3573    2.9374   -1.7254 H   0  0  0  0  0  0  0  0  0  0  0  0
    0.7404    3.9242   -0.3279 H   0  0  0  0  0  0  0  0  0  0  0  0
    5.0827   -1.8028   -1.0908 H   0  0  0  0  0  0  0  0  0  0  0  0
    5.7153   -0.5981    0.0608 H   0  0  0  0  0  0  0  0  0  0  0  0
    6.2818   -0.6078   -1.5865 H   0  0  0  0  0  0  0  0  0  0  0  0
    3.7944   -0.6002   -3.3527 H   0  0  0  0  0  0  0  0  0  0  0  0
    5.1937    0.4783   -3.3363 H   0  0  0  0  0  0  0  0  0  0  0  0
    3.5872    1.1612   -3.2266 H   0  0  0  0  0  0  0  0  0  0  0  0
    2.9865    4.1085    1.1654 H   0  0  0  0  0  0  0  0  0  0  0  0
    2.9779    3.2021    2.6762 H   0  0  0  0  0  0  0  0  0  0  0  0
    1.4488    3.6745    1.9412 H   0  0  0  0  0  0  0  0  0  0  0  0
    0.8929   -4.4209    0.3639 H   0  0  0  0  0  0  0  0  0  0  0  0
    0.3434   -3.3718    1.6641 H   0  0  0  0  0  0  0  0  0  0  0  0
    4.0696   -2.9909    1.0754 H   0  0  0  0  0  0  0  0  0  0  0  0
    3.1766   -4.4240    0.6309 H   0  0  0  0  0  0  0  0  0  0  0  0
    2.9073   -3.6892    2.2232 H   0  0  0  0  0  0  0  0  0  0  0  0
   -0.4395   -1.7069   -0.1518 H   0  0  0  0  0  0  0  0  0  0  0  0
    0.1492   -2.8346   -1.3648 H   0  0  0  0  0  0  0  0  0  0  0  0
   -3.7081    1.8460   -1.8581 H   0  0  0  0  0  0  0  0  0  0  0  0
   -3.8486   -0.5027    1.7552 H   0  0  0  0  0  0  0  0  0  0  0  0
   -5.8888    0.8727   -2.4783 H   0  0  0  0  0  0  0  0  0  0  0  0
   -6.9570   -0.7633   -0.9184 H   0  0  0  0  0  0  0  0  0  0  0  0
  1 19  1  0  0  0  0
  1 23  1  0  0  0  0
  2 14  1  0  0  0  0
  2 20  1  0  0  0  0
  2 21  1  0  0  0  0
  3  4  1  0  0  0  0
  3 19  2  0  0  0  0
  4 23  2  0  0  0  0
  5 24  3  0  0  0  0
  6 27  1  0  0  0  0
  6 29  2  0  0  0  0
  7  8  1  0  0  0  0
  7  9  1  0  0  0  0
  7 11  1  0  0  0  0
  7 30  1  0  0  0  0
  8 13  1  0  0  0  0
  8 14  1  0  0  0  0
  8 31  1  0  0  0  0
  9 10  1  0  0  0  0
  9 32  1  0  0  0  0
  9 33  1  0  0  0  0
 10 12  1  0  0  0  0
 10 15  1  0  0  0  0
 10 34  1  0  0  0  0
 11 16  1  0  0  0  0
 11 17  1  0  0  0  0
 11 35  1  0  0  0  0
 12 13  2  0  0  0  0
 12 18  1  0  0  0  0
 13 36  1  0  0  0  0
 14 37  1  0  0  0  0
 14 38  1  0  0  0  0
 15 19  1  0  0  0  0
 15 39  1  0  0  0  0
 15 40  1  0  0  0  0
 16 41  1  0  0  0  0
 16 42  1  0  0  0  0
 16 43  1  0  0  0  0
 17 44  1  0  0  0  0
 17 45  1  0  0  0  0
 17 46  1  0  0  0  0
 18 47  1  0  0  0  0
 18 48  1  0  0  0  0
 18 49  1  0  0  0  0
 20 22  1  0  0  0  0
 20 50  1  0  0  0  0
 20 51  1  0  0  0  0
 21 52  1  0  0  0  0
 21 53  1  0  0  0  0
 21 54  1  0  0  0  0
 22 24  1  0  0  0  0
 22 55  1  0  0  0  0
 22 56  1  0  0  0  0
 23 25  1  0  0  0  0
 25 26  1  0  0  0  0
 25 27  2  0  0  0  0
 26 28  2  0  0  0  0
 26 57  1  0  0  0  0
 27 58  1  0  0  0  0
 28 29  1  0  0  0  0
 28 59  1  0  0  0  0
 29 60  1  0  0  0  0
M  END
> <PUBCHEM_COMPOUND_CID>
38030429

> <PUBCHEM_CONFORMER_RMSD>
1

> <PUBCHEM_CONFORMER_DIVERSEORDER>
8
2
39
16
118
47
9
145
172
90
167
71
46
112
56
26
156
158
119
54
96
161
3
66
163
100
95
21
13
154
36
74
124
35
11
81
114
59
67
93
33
159
125
76
122
135
32
58
60
175
61
78
113
155
24
80
28
88
89
83
104
140
170
62
48
165
117
75
53
128
55
162
42
69
17
82
25
51
136
141
44
72
97
12
105
106
152
137
41
20
68
57
134
79
45
27
22
77
91
37
169
126
157
131
40
64
85
142
166
176
23
115
120
87
132
38
149
15
173
144
160
123
70
18
86
111
98
174
103
34
129
130
1
168
147
52
121
14
65
102
127
116
63
101
110
31
139
94
92
133
109
148
146
7
171
143
99
5
29
6
150
43
84
49
73
50
107
10
19
138
4
108
153
164
30
151

> <PUBCHEM_MMFF94_PARTIAL_CHARGES>
29
1 -0.28
10 0.14
12 -0.28
13 -0.29
14 0.27
15 0.18
18 0.14
19 0.3
2 -0.81
20 0.27
21 0.27
22 0.2
23 0.43
24 0.36
25 0.05
26 -0.15
27 0.16
28 -0.15
29 0.16
3 -0.34
36 0.15
4 -0.34
5 -0.56
57 0.15
58 0.15
59 0.15
6 -0.62
60 0.15
8 0.14

> <PUBCHEM_EFFECTIVE_ROTOR_COUNT>
8.8

> <PUBCHEM_PHARMACOPHORE_FEATURES>
7
1 2 cation
1 5 acceptor
1 6 acceptor
3 11 16 17 hydrophobe
5 1 3 4 19 23 rings
6 6 25 26 27 28 29 rings
6 7 8 9 10 12 13 rings

> <PUBCHEM_HEAVY_ATOM_COUNT>
29

> <PUBCHEM_ATOM_DEF_STEREO_COUNT>
3

> <PUBCHEM_ATOM_UDEF_STEREO_COUNT>
0

> <PUBCHEM_BOND_DEF_STEREO_COUNT>
0

> <PUBCHEM_BOND_UDEF_STEREO_COUNT>
0

> <PUBCHEM_ISOTOPIC_ATOM_COUNT>
0

> <PUBCHEM_COMPONENT_COUNT>
1

> <PUBCHEM_CACTVS_TAUTO_COUNT>
1

> <PUBCHEM_CONFORMER_ID>
02444C5D00000008

> <PUBCHEM_MMFF94_ENERGY>
56.2778

> <PUBCHEM_FEATURE_SELFOVERLAP>
35.522

> <PUBCHEM_SHAPE_FINGERPRINT>
10816530 23 16557043791605952847
1100329 8 18339361971521928042
11285246 1 16978194918988484046
11513181 2 17766008190314109406
11578080 2 15625079019121614362
11796584 16 17988352711894046661
12597179 24 17985257732596020800
14117953 113 17907569238832502927
15001296 14 17975125758815848219
16067690 210 16271386174681201059
16114785 44 16549714581184268504
17492 54 18260838076475679674
19319366 153 18186522086098431066
20775438 99 17914876846055096983
20775530 9 17832425297927022859
22393880 68 18413103944744501453
23559900 14 18200038480758277356
238 59 18334022670063947296
239999 70 18131347535748389964
24941158 1 16270526454960752130
3052486 1 18263362646005780610
3298306 158 18261385659816922127
338550 245 18118118306479507983
404807 78 17533513458770397699
463206 1 18338792412083187267
653340 110 17548117279399545105
6669772 16 18341044229287972240

> <PUBCHEM_SHAPE_MULTIPOLES>
566.03
10.81
4.56
1.81
11.97
3.91
-0.57
0.63
-4.28
-1.22
1.39
-1.72
-0.66
-0.02

> <PUBCHEM_SHAPE_SELFOVERLAP>
1180.814

> <PUBCHEM_SHAPE_VOLUME>
318.4

> <PUBCHEM_COORDINATE_TYPE>
2
5
10

$$$$
