45361701
  -OEChem-12032416233D

 81 84  0     1  0  0  0  0  0999 V2000
   -0.4870   -1.1238   -2.0723 O   0  0  0  0  0  0  0  0  0  0  0  0
   -5.2633   -1.2872   -0.7565 O   0  0  0  0  0  0  0  0  0  0  0  0
   -4.8785    2.2863    3.0325 O   0  0  0  0  0  0  0  0  0  0  0  0
   -3.3034    2.9026   -1.1876 O   0  0  0  0  0  0  0  0  0  0  0  0
    2.4547    0.0105   -3.1467 O   0  0  0  0  0  0  0  0  0  0  0  0
   -1.3790    1.7591   -0.6274 N   0  0  0  0  0  0  0  0  0  0  0  0
   -2.5731   -0.6752   -1.1414 N   0  0  0  0  0  0  0  0  0  0  0  0
    1.2107    1.4061   -1.7449 N   0  0  0  0  0  0  0  0  0  0  0  0
   -2.8965    2.5550    1.0481 N   0  0  0  0  0  0  0  0  0  0  0  0
   -4.8298   -3.4160   -1.5008 N   0  0  0  0  0  0  0  0  0  0  0  0
    6.7173    0.5098    1.4801 N   0  0  0  0  0  0  0  0  0  0  0  0
   -0.9892   -2.7825    0.6359 C   0  0  0  0  0  0  0  0  0  0  0  0
   -0.5006   -2.6823    2.0873 C   0  0  0  0  0  0  0  0  0  0  0  0
   -0.6832   -4.1678    0.0507 C   0  0  0  0  0  0  0  0  0  0  0  0
   -2.4833   -2.4775    0.5475 C   0  0  0  0  0  0  0  0  0  0  0  0
    0.9801   -3.0350    2.2092 C   0  0  0  0  0  0  0  0  0  0  0  0
    0.7977   -4.5182    0.1762 C   0  0  0  0  0  0  0  0  0  0  0  0
    1.2818   -4.4090    1.6188 C   0  0  0  0  0  0  0  0  0  0  0  0
   -2.9533   -2.0370   -0.8425 C   0  0  1  0  0  0  0  0  0  0  0  0
   -1.2375    1.1408   -1.9538 C   0  0  1  0  0  0  0  0  0  0  0  0
    0.0712    1.5021   -2.6550 C   0  0  0  0  0  0  0  0  0  0  0  0
   -0.1869    1.7269    0.2420 C   0  0  0  0  0  0  0  0  0  0  0  0
   -1.3677   -0.3378   -1.7328 C   0  0  0  0  0  0  0  0  0  0  0  0
    1.0583    2.1818   -0.5116 C   0  0  0  0  0  0  0  0  0  0  0  0
   -4.4587   -2.1755   -1.0275 C   0  0  0  0  0  0  0  0  0  0  0  0
   -2.5718    2.4302   -0.3081 C   0  0  0  0  0  0  0  0  0  0  0  0
    2.3327    0.6602   -2.1093 C   0  0  0  0  0  0  0  0  0  0  0  0
   -3.6569    3.7138    1.5148 C   0  0  0  0  0  0  0  0  0  0  0  0
   -2.8189    1.4645    2.0278 C   0  0  0  0  0  0  0  0  0  0  0  0
   -5.0271    3.2759    2.0095 C   0  0  0  0  0  0  0  0  0  0  0  0
   -4.2195    1.1207    2.5301 C   0  0  0  0  0  0  0  0  0  0  0  0
    3.4690    0.6207   -1.1798 C   0  0  0  0  0  0  0  0  0  0  0  0
    3.5357   -0.3716   -0.2017 C   0  0  0  0  0  0  0  0  0  0  0  0
    4.4812    1.5758   -1.2743 C   0  0  0  0  0  0  0  0  0  0  0  0
    4.6142   -0.4086    0.6820 C   0  0  0  0  0  0  0  0  0  0  0  0
    5.5598    1.5389   -0.3907 C   0  0  0  0  0  0  0  0  0  0  0  0
    5.6262    0.5466    0.5875 C   0  0  0  0  0  0  0  0  0  0  0  0
    7.7775    1.4937    1.3847 C   0  0  0  0  0  0  0  0  0  0  0  0
    6.7969   -0.5170    2.5001 C   0  0  0  0  0  0  0  0  0  0  0  0
   -0.4164   -2.0356    0.0837 H   0  0  0  0  0  0  0  0  0  0  0  0
   -1.0868   -3.3561    2.7252 H   0  0  0  0  0  0  0  0  0  0  0  0
   -0.6588   -1.6658    2.4676 H   0  0  0  0  0  0  0  0  0  0  0  0
   -1.2757   -4.9330    0.5684 H   0  0  0  0  0  0  0  0  0  0  0  0
   -0.9639   -4.2113   -1.0071 H   0  0  0  0  0  0  0  0  0  0  0  0
   -3.0532   -3.3592    0.8698 H   0  0  0  0  0  0  0  0  0  0  0  0
   -2.7441   -1.6884    1.2640 H   0  0  0  0  0  0  0  0  0  0  0  0
    1.2772   -3.0146    3.2638 H   0  0  0  0  0  0  0  0  0  0  0  0
    1.5797   -2.2750    1.6954 H   0  0  0  0  0  0  0  0  0  0  0  0
    1.3866   -3.8442   -0.4584 H   0  0  0  0  0  0  0  0  0  0  0  0
    0.9685   -5.5355   -0.1936 H   0  0  0  0  0  0  0  0  0  0  0  0
    2.3600   -4.5997    1.6615 H   0  0  0  0  0  0  0  0  0  0  0  0
    0.7956   -5.1820    2.2264 H   0  0  0  0  0  0  0  0  0  0  0  0
   -2.4795   -2.6709   -1.6017 H   0  0  0  0  0  0  0  0  0  0  0  0
   -2.0708    1.4356   -2.6033 H   0  0  0  0  0  0  0  0  0  0  0  0
    0.2289    0.8861   -3.5468 H   0  0  0  0  0  0  0  0  0  0  0  0
    0.0314    2.5463   -2.9893 H   0  0  0  0  0  0  0  0  0  0  0  0
   -3.2320    0.0597   -0.9043 H   0  0  0  0  0  0  0  0  0  0  0  0
   -0.3366    2.3701    1.1139 H   0  0  0  0  0  0  0  0  0  0  0  0
   -0.0657    0.6952    0.5912 H   0  0  0  0  0  0  0  0  0  0  0  0
    1.9312    2.0954    0.1384 H   0  0  0  0  0  0  0  0  0  0  0  0
    0.9675    3.2354   -0.8016 H   0  0  0  0  0  0  0  0  0  0  0  0
   -3.0812    4.1542    2.3371 H   0  0  0  0  0  0  0  0  0  0  0  0
   -3.7485    4.4620    0.7213 H   0  0  0  0  0  0  0  0  0  0  0  0
   -2.3483    0.5838    1.5874 H   0  0  0  0  0  0  0  0  0  0  0  0
   -2.1979    1.8257    2.8550 H   0  0  0  0  0  0  0  0  0  0  0  0
   -4.1559   -4.1480   -1.7014 H   0  0  0  0  0  0  0  0  0  0  0  0
   -5.8062   -3.6413   -1.6602 H   0  0  0  0  0  0  0  0  0  0  0  0
   -5.6389    2.8679    1.1962 H   0  0  0  0  0  0  0  0  0  0  0  0
   -5.5626    4.1272    2.4407 H   0  0  0  0  0  0  0  0  0  0  0  0
   -4.1565    0.3912    3.3435 H   0  0  0  0  0  0  0  0  0  0  0  0
   -4.8286    0.6797    1.7318 H   0  0  0  0  0  0  0  0  0  0  0  0
    2.7522   -1.1206   -0.1236 H   0  0  0  0  0  0  0  0  0  0  0  0
    4.4380    2.3534   -2.0327 H   0  0  0  0  0  0  0  0  0  0  0  0
    4.6197   -1.2005    1.4245 H   0  0  0  0  0  0  0  0  0  0  0  0
    6.3209    2.3043   -0.5051 H   0  0  0  0  0  0  0  0  0  0  0  0
    8.5509    1.3303    2.1436 H   0  0  0  0  0  0  0  0  0  0  0  0
    7.3930    2.5070    1.5460 H   0  0  0  0  0  0  0  0  0  0  0  0
    8.2799    1.4414    0.4123 H   0  0  0  0  0  0  0  0  0  0  0  0
    6.8419   -1.5163    2.0530 H   0  0  0  0  0  0  0  0  0  0  0  0
    7.6985   -0.4095    3.1135 H   0  0  0  0  0  0  0  0  0  0  0  0
    5.9451   -0.4598    3.1869 H   0  0  0  0  0  0  0  0  0  0  0  0
  1 23  2  0  0  0  0
  2 25  2  0  0  0  0
  3 30  1  0  0  0  0
  3 31  1  0  0  0  0
  4 26  2  0  0  0  0
  5 27  2  0  0  0  0
  6 20  1  0  0  0  0
  6 22  1  0  0  0  0
  6 26  1  0  0  0  0
  7 19  1  0  0  0  0
  7 23  1  0  0  0  0
  7 57  1  0  0  0  0
  8 21  1  0  0  0  0
  8 24  1  0  0  0  0
  8 27  1  0  0  0  0
  9 26  1  0  0  0  0
  9 28  1  0  0  0  0
  9 29  1  0  0  0  0
 10 25  1  0  0  0  0
 10 66  1  0  0  0  0
 10 67  1  0  0  0  0
 11 37  1  0  0  0  0
 11 38  1  0  0  0  0
 11 39  1  0  0  0  0
 12 13  1  0  0  0  0
 12 14  1  0  0  0  0
 12 15  1  0  0  0  0
 12 40  1  0  0  0  0
 13 16  1  0  0  0  0
 13 41  1  0  0  0  0
 13 42  1  0  0  0  0
 14 17  1  0  0  0  0
 14 43  1  0  0  0  0
 14 44  1  0  0  0  0
 15 19  1  0  0  0  0
 15 45  1  0  0  0  0
 15 46  1  0  0  0  0
 16 18  1  0  0  0  0
 16 47  1  0  0  0  0
 16 48  1  0  0  0  0
 17 18  1  0  0  0  0
 17 49  1  0  0  0  0
 17 50  1  0  0  0  0
 18 51  1  0  0  0  0
 18 52  1  0  0  0  0
 19 25  1  0  0  0  0
 19 53  1  0  0  0  0
 20 21  1  0  0  0  0
 20 23  1  0  0  0  0
 20 54  1  0  0  0  0
 21 55  1  0  0  0  0
 21 56  1  0  0  0  0
 22 24  1  0  0  0  0
 22 58  1  0  0  0  0
 22 59  1  0  0  0  0
 24 60  1  0  0  0  0
 24 61  1  0  0  0  0
 27 32  1  0  0  0  0
 28 30  1  0  0  0  0
 28 62  1  0  0  0  0
 28 63  1  0  0  0  0
 29 31  1  0  0  0  0
 29 64  1  0  0  0  0
 29 65  1  0  0  0  0
 30 68  1  0  0  0  0
 30 69  1  0  0  0  0
 31 70  1  0  0  0  0
 31 71  1  0  0  0  0
 32 33  2  0  0  0  0
 32 34  1  0  0  0  0
 33 35  1  0  0  0  0
 33 72  1  0  0  0  0
 34 36  2  0  0  0  0
 34 73  1  0  0  0  0
 35 37  2  0  0  0  0
 35 74  1  0  0  0  0
 36 37  1  0  0  0  0
 36 75  1  0  0  0  0
 38 76  1  0  0  0  0
 38 77  1  0  0  0  0
 38 78  1  0  0  0  0
 39 79  1  0  0  0  0
 39 80  1  0  0  0  0
 39 81  1  0  0  0  0
M  END
> <PUBCHEM_COMPOUND_CID>
45361701

> <PUBCHEM_CONFORMER_RMSD>
1.2

> <PUBCHEM_CONFORMER_DIVERSEORDER>
1
192
136
178
69
102
126
92
229
168
47
140
176
143
231
220
68
33
230
177
119
39
61
169
180
108
109
221
121
201
139
200
216
131
193
213
73
151
115
110
190
228
35
232
36
155
19
50
182
66
217
26
189
153
116
27
186
74
135
227
83
181
101
46
159
172
48
124
100
37
20
51
94
133
154
219
165
23
22
45
117
164
60
52
65
208
179
13
211
202
125
170
78
205
171
158
207
225
209
132
59
162
89
62
32
81
56
93
188
224
199
185
97
184
118
174
85
54
107
103
146
14
203
87
152
95
12
129
57
120
11
197
212
194
145
5
76
142
210
28
187
7
183
41
157
80
130
198
72
70
75
105
67
99
163
150
127
114
160
88
141
79
34
82
147
173
98
31
167
111
214
58
53
144
215
156
148
137
3
206
84
134
15
175
86
21
166
29
63
43
4
223
91
191
226
42
18
138
49
24
8
122
195
40
196
96
222
149
9
218
77
71
161
106
6
104
17
44
112
64
128
55
30
113
90
25
204
38
10
16
2
123

> <PUBCHEM_MMFF94_PARTIAL_CHARGES>
39
1 -0.57
10 -0.8
11 -0.84
19 0.36
2 -0.57
20 0.36
21 0.3
22 0.3
23 0.57
24 0.3
25 0.57
26 0.69
27 0.54
28 0.3
29 0.3
3 -0.56
30 0.28
31 0.28
32 0.09
33 -0.15
34 -0.15
35 -0.15
36 -0.15
37 0.1
38 0.37
39 0.37
4 -0.57
5 -0.57
57 0.37
6 -0.66
66 0.37
67 0.37
7 -0.73
72 0.15
73 0.15
74 0.15
75 0.15
8 -0.66
9 -0.66

> <PUBCHEM_EFFECTIVE_ROTOR_COUNT>
14.6

> <PUBCHEM_PHARMACOPHORE_FEATURES>
12
1 1 acceptor
1 10 donor
1 11 cation
1 2 acceptor
1 3 acceptor
1 4 acceptor
1 5 acceptor
1 7 donor
6 12 13 14 16 17 18 rings
6 3 9 28 29 30 31 rings
6 32 33 34 35 36 37 rings
6 6 8 20 21 22 24 rings

> <PUBCHEM_HEAVY_ATOM_COUNT>
39

> <PUBCHEM_ATOM_DEF_STEREO_COUNT>
2

> <PUBCHEM_ATOM_UDEF_STEREO_COUNT>
0

> <PUBCHEM_BOND_DEF_STEREO_COUNT>
0

> <PUBCHEM_BOND_UDEF_STEREO_COUNT>
0

> <PUBCHEM_ISOTOPIC_ATOM_COUNT>
0

> <PUBCHEM_COMPONENT_COUNT>
1

> <PUBCHEM_CACTVS_TAUTO_COUNT>
4

> <PUBCHEM_CONFORMER_ID>
02B42A2500000001

> <PUBCHEM_MMFF94_ENERGY>
117.7989

> <PUBCHEM_FEATURE_SELFOVERLAP>
60.899

> <PUBCHEM_SHAPE_FINGERPRINT>
10305334 12 18270674277749783312
11578080 2 16558482893940676215
12107698 1 17987505073916686496
12156800 1 17346027858806838875
12422481 6 17822584793602006568
12788726 201 18196668490577437893
13111901 51 18335413518245778205
14020679 6 18273497871007923448
14028597 1 18410013256572198467
14068700 675 18195796590730983183
14705955 166 18060131089712189200
16112460 7 18188214311892095120
16120349 306 18338240358034508883
21133410 38 18339359669525387963
24893992 56 18266181829102997847
3380486 77 17896326994062188415
4112364 45 17623862223606308385
4616759 239 17976812414095712336
469060 322 18040147413994600997
5104073 3 17988360382742112420

> <PUBCHEM_SHAPE_MULTIPOLES>
743.37
13.61
5.59
3.02
20.83
5.35
-0.29
-7.29
-8.13
-5.93
-2.21
-0.92
-0.97
-4.31

> <PUBCHEM_SHAPE_SELFOVERLAP>
1547.616

> <PUBCHEM_SHAPE_VOLUME>
416.5

> <PUBCHEM_COORDINATE_TYPE>
2
5
10

$$$$
