45783385
  -OEChem-12032416343D

 58 61  0     1  0  0  0  0  0999 V2000
    0.1426    0.6227    2.8711 O   0  0  0  0  0  0  0  0  0  0  0  0
    0.8194   -2.7301   -2.0166 O   0  0  0  0  0  0  0  0  0  0  0  0
   -2.2618   -0.9877    0.6058 N   0  0  1  0  0  0  0  0  0  0  0  0
   -3.6106    2.3184   -1.6996 N   0  0  0  0  0  0  0  0  0  0  0  0
    0.5652   -0.0441    0.7750 N   0  0  0  0  0  0  0  0  0  0  0  0
    1.3758    1.1885    2.5235 N   0  0  0  0  0  0  0  0  0  0  0  0
    2.5967   -1.0001   -0.7065 N   0  0  0  0  0  0  0  0  0  0  0  0
    4.3264    0.5317   -1.2172 N   0  0  0  0  0  0  0  0  0  0  0  0
   -3.0667    0.1639    0.2047 C   0  0  0  0  0  0  0  0  0  0  0  0
   -1.5927   -0.8045    1.9093 C   0  0  1  0  0  0  0  0  0  0  0  0
   -3.0633   -2.2064    0.7202 C   0  0  0  0  0  0  0  0  0  0  0  0
   -3.7195   -0.0939   -1.1557 C   0  0  0  0  0  0  0  0  0  0  0  0
   -2.2132    1.4340    0.1422 C   0  0  0  0  0  0  0  0  0  0  0  0
   -1.4486   -2.2281    2.4785 C   0  0  0  0  0  0  0  0  0  0  0  0
   -2.1185   -3.1350    1.4559 C   0  0  0  0  0  0  0  0  0  0  0  0
   -4.4864    1.1399   -1.6389 C   0  0  0  0  0  0  0  0  0  0  0  0
   -3.0292    2.6178   -0.3835 C   0  0  0  0  0  0  0  0  0  0  0  0
   -0.2649   -0.0870    1.7863 C   0  0  0  0  0  0  0  0  0  0  0  0
   -4.3446    3.4758   -2.2102 C   0  0  0  0  0  0  0  0  0  0  0  0
    1.5564    0.7498    1.2742 C   0  0  0  0  0  0  0  0  0  0  0  0
    2.7155    1.0848    0.4987 C   0  0  0  0  0  0  0  0  0  0  0  0
    3.2364    0.2434   -0.4712 C   0  0  0  0  0  0  0  0  0  0  0  0
    3.3545    2.3003    0.7170 C   0  0  0  0  0  0  0  0  0  0  0  0
    4.4787    2.6326   -0.0306 C   0  0  0  0  0  0  0  0  0  0  0  0
    3.0596   -1.9306   -1.6830 C   0  0  0  0  0  0  0  0  0  0  0  0
    4.9208    1.7219   -0.9768 C   0  0  0  0  0  0  0  0  0  0  0  0
    2.1466   -3.1443   -1.7183 C   0  0  0  0  0  0  0  0  0  0  0  0
   -0.0747   -3.8337   -2.0544 C   0  0  0  0  0  0  0  0  0  0  0  0
   -3.8673    0.3307    0.9403 H   0  0  0  0  0  0  0  0  0  0  0  0
   -2.2353   -0.2379    2.5982 H   0  0  0  0  0  0  0  0  0  0  0  0
   -3.3289   -2.6380   -0.2494 H   0  0  0  0  0  0  0  0  0  0  0  0
   -3.9753   -2.0488    1.3098 H   0  0  0  0  0  0  0  0  0  0  0  0
   -4.4323   -0.9248   -1.1085 H   0  0  0  0  0  0  0  0  0  0  0  0
   -2.9579   -0.3628   -1.9004 H   0  0  0  0  0  0  0  0  0  0  0  0
   -1.8555    1.7334    1.1315 H   0  0  0  0  0  0  0  0  0  0  0  0
   -1.3466    1.2889   -0.5151 H   0  0  0  0  0  0  0  0  0  0  0  0
   -0.4103   -2.5336    2.6478 H   0  0  0  0  0  0  0  0  0  0  0  0
   -1.9803   -2.2984    3.4352 H   0  0  0  0  0  0  0  0  0  0  0  0
   -2.6375   -3.9754    1.9261 H   0  0  0  0  0  0  0  0  0  0  0  0
   -1.3654   -3.5402    0.7707 H   0  0  0  0  0  0  0  0  0  0  0  0
   -4.8855    0.9237   -2.6375 H   0  0  0  0  0  0  0  0  0  0  0  0
   -5.3440    1.3233   -0.9780 H   0  0  0  0  0  0  0  0  0  0  0  0
   -3.8136    2.8761    0.3403 H   0  0  0  0  0  0  0  0  0  0  0  0
   -2.3614    3.4846   -0.4625 H   0  0  0  0  0  0  0  0  0  0  0  0
   -3.6803    4.3421   -2.3038 H   0  0  0  0  0  0  0  0  0  0  0  0
   -5.1840    3.7530   -1.5622 H   0  0  0  0  0  0  0  0  0  0  0  0
   -4.7358    3.2716   -3.2131 H   0  0  0  0  0  0  0  0  0  0  0  0
    2.9962    3.0125    1.4562 H   0  0  0  0  0  0  0  0  0  0  0  0
    2.0511   -1.3728    0.0638 H   0  0  0  0  0  0  0  0  0  0  0  0
    4.9920    3.5753    0.1209 H   0  0  0  0  0  0  0  0  0  0  0  0
    3.0552   -1.4560   -2.6716 H   0  0  0  0  0  0  0  0  0  0  0  0
    4.0831   -2.2524   -1.4600 H   0  0  0  0  0  0  0  0  0  0  0  0
    5.7930    1.9336   -1.5864 H   0  0  0  0  0  0  0  0  0  0  0  0
    2.4950   -3.8441   -2.4866 H   0  0  0  0  0  0  0  0  0  0  0  0
    2.1596   -3.6540   -0.7471 H   0  0  0  0  0  0  0  0  0  0  0  0
    0.1929   -4.5114   -2.8708 H   0  0  0  0  0  0  0  0  0  0  0  0
   -0.0659   -4.3727   -1.1025 H   0  0  0  0  0  0  0  0  0  0  0  0
   -1.0842   -3.4533   -2.2323 H   0  0  0  0  0  0  0  0  0  0  0  0
  1  6  1  0  0  0  0
  1 18  1  0  0  0  0
  2 27  1  0  0  0  0
  2 28  1  0  0  0  0
  3  9  1  0  0  0  0
  3 10  1  0  0  0  0
  3 11  1  0  0  0  0
  4 16  1  0  0  0  0
  4 17  1  0  0  0  0
  4 19  1  0  0  0  0
  5 18  2  0  0  0  0
  5 20  1  0  0  0  0
  6 20  2  0  0  0  0
  7 22  1  0  0  0  0
  7 25  1  0  0  0  0
  7 49  1  0  0  0  0
  8 22  1  0  0  0  0
  8 26  2  0  0  0  0
  9 12  1  0  0  0  0
  9 13  1  0  0  0  0
  9 29  1  0  0  0  0
 10 14  1  0  0  0  0
 10 18  1  0  0  0  0
 10 30  1  0  0  0  0
 11 15  1  0  0  0  0
 11 31  1  0  0  0  0
 11 32  1  0  0  0  0
 12 16  1  0  0  0  0
 12 33  1  0  0  0  0
 12 34  1  0  0  0  0
 13 17  1  0  0  0  0
 13 35  1  0  0  0  0
 13 36  1  0  0  0  0
 14 15  1  0  0  0  0
 14 37  1  0  0  0  0
 14 38  1  0  0  0  0
 15 39  1  0  0  0  0
 15 40  1  0  0  0  0
 16 41  1  0  0  0  0
 16 42  1  0  0  0  0
 17 43  1  0  0  0  0
 17 44  1  0  0  0  0
 19 45  1  0  0  0  0
 19 46  1  0  0  0  0
 19 47  1  0  0  0  0
 20 21  1  0  0  0  0
 21 22  2  0  0  0  0
 21 23  1  0  0  0  0
 23 24  2  0  0  0  0
 23 48  1  0  0  0  0
 24 26  1  0  0  0  0
 24 50  1  0  0  0  0
 25 27  1  0  0  0  0
 25 51  1  0  0  0  0
 25 52  1  0  0  0  0
 26 53  1  0  0  0  0
 27 54  1  0  0  0  0
 27 55  1  0  0  0  0
 28 56  1  0  0  0  0
 28 57  1  0  0  0  0
 28 58  1  0  0  0  0
M  END
> <PUBCHEM_COMPOUND_CID>
45783385

> <PUBCHEM_CONFORMER_RMSD>
1

> <PUBCHEM_CONFORMER_DIVERSEORDER>
1
149
97
4
46
72
144
105
54
148
14
110
48
55
131
125
151
101
27
26
75
51
135
145
35
139
127
108
59
96
155
107
124
89
73
23
103
86
109
50
65
71
82
18
128
115
24
78
117
79
146
45
138
116
120
40
66
140
106
38
132
113
134
95
85
37
142
44
77
34
63
91
88
102
114
122
76
152
133
60
64
147
42
29
70
67
150
153
100
41
33
130
58
39
20
123
111
154
61
13
57
136
92
121
62
15
137
83
22
81
43
21
93
80
53
112
11
99
129
98
143
5
32
119
47
87
90
25
104
68
69
84
56
6
3
126
74
19
17
52
36
94
7
49
8
31
10
16
141
30
2
12
9
118
28

> <PUBCHEM_MMFF94_PARTIAL_CHARGES>
28
1 -0.02
10 0.45
11 0.27
16 0.27
17 0.27
18 0.3
19 0.27
2 -0.56
20 0.46
21 0.05
22 0.41
23 -0.15
24 -0.15
25 0.37
26 0.16
27 0.28
28 0.28
3 -0.81
4 -0.81
48 0.15
49 0.4
5 -0.57
50 0.15
53 0.15
6 -0.41
7 -0.87
8 -0.62
9 0.27

> <PUBCHEM_EFFECTIVE_ROTOR_COUNT>
9.2

> <PUBCHEM_PHARMACOPHORE_FEATURES>
11
1 2 acceptor
1 3 cation
1 4 cation
1 7 cation
1 7 donor
1 8 acceptor
3 5 6 20 cation
5 1 5 6 18 20 rings
5 3 10 11 14 15 rings
6 4 9 12 13 16 17 rings
6 8 21 22 23 24 26 rings

> <PUBCHEM_HEAVY_ATOM_COUNT>
28

> <PUBCHEM_ATOM_DEF_STEREO_COUNT>
1

> <PUBCHEM_ATOM_UDEF_STEREO_COUNT>
0

> <PUBCHEM_BOND_DEF_STEREO_COUNT>
0

> <PUBCHEM_BOND_UDEF_STEREO_COUNT>
0

> <PUBCHEM_ISOTOPIC_ATOM_COUNT>
0

> <PUBCHEM_COMPONENT_COUNT>
1

> <PUBCHEM_CACTVS_TAUTO_COUNT>
8

> <PUBCHEM_CONFORMER_ID>
02BA995900000001

> <PUBCHEM_MMFF94_ENERGY>
58.348

> <PUBCHEM_FEATURE_SELFOVERLAP>
55.823

> <PUBCHEM_SHAPE_FINGERPRINT>
10688039 33 17262432311564154622
10937287 8 17823402826232969301
11477941 20 17684937186430035364
11578080 2 18046945673136051228
11640471 11 16660912336063629073
11720765 8 17695329392314763412
12104220 4 17024041362595272724
12156800 1 14038631057308330394
12539773 59 14998853291954935443
12788726 201 17532923012594115803
13911987 19 17843697783678236776
14114206 34 16630255769821479112
14251757 17 18266465295719836399
14468879 13 18409448106962343807
14659021 117 16612532415888300510
15961568 22 17176309747303491076
161222 10 17749396927386148117
16988056 13 16455693717936218061
20465049 17 17619637878225356281
21033650 10 17313684723263532736
21285901 2 18338245980574525763
21315764 21 18057034705922537661
21756936 100 15142120632327442814
21857420 4 15520352292821955901
21987440 362 16521011374515309956
235170 7 18339088210433087984
23557571 272 18042697275932896035
238 59 18130782343653066462
24893989 43 16253282917747014919
3472631 163 17676481778681951957
3493558 16 15363340426179288420
44802255 64 18048333412299682748
46194498 28 18341327774159117725
469060 322 17764591310230047575
550186 7 17970074537651095500
5895379 119 17458922521201030340
5951187 136 17826772768905146445

> <PUBCHEM_SHAPE_MULTIPOLES>
534.6
9.06
4.46
2.76
2.79
1.65
-0.56
-7.79
4.82
-1.83
2.6
-0.71
1.16
4.12

> <PUBCHEM_SHAPE_SELFOVERLAP>
1126.572

> <PUBCHEM_SHAPE_VOLUME>
302.2

> <PUBCHEM_COORDINATE_TYPE>
2
5
10

$$$$
