75536067
  -OEChem-12032416293D

 39 40  0     1  0  0  0  0  0999 V2000
   -0.8312    3.3933   -0.7462 O   0  0  0  0  0  0  0  0  0  0  0  0
    1.8593    2.8895   -0.9618 O   0  0  0  0  0  0  0  0  0  0  0  0
   -1.5488   -1.1558   -1.0880 O   0  0  0  0  0  0  0  0  0  0  0  0
   -1.5605    0.6096    0.4171 N   0  0  0  0  0  0  0  0  0  0  0  0
    2.0306   -2.9952    0.6829 N   0  0  0  0  0  0  0  0  0  0  0  0
    0.8568    0.6018    0.9574 C   0  0  2  0  0  0  0  0  0  0  0  0
   -0.2746    1.1537    0.0609 C   0  0  2  0  0  0  0  0  0  0  0  0
   -0.2092    2.6624    0.2938 C   0  0  1  0  0  0  0  0  0  0  0  0
    1.8438    1.7795    1.1650 C   0  0  0  0  0  0  0  0  0  0  0  0
    1.2885    2.9403    0.3421 C   0  0  1  0  0  0  0  0  0  0  0  0
    1.4930   -0.6549    0.4020 C   0  0  0  0  0  0  0  0  0  0  0  0
   -2.0994   -0.5157   -0.1947 C   0  0  0  0  0  0  0  0  0  0  0  0
    2.1085   -0.6556   -0.8447 C   0  0  0  0  0  0  0  0  0  0  0  0
    1.4809   -1.8399    1.1200 C   0  0  0  0  0  0  0  0  0  0  0  0
   -3.4737   -0.8846    0.3610 C   0  0  0  0  0  0  0  0  0  0  0  0
    2.6852   -1.8247   -1.3285 C   0  0  0  0  0  0  0  0  0  0  0  0
   -4.5681   -0.1528   -0.4134 C   0  0  0  0  0  0  0  0  0  0  0  0
   -3.7010   -2.3936    0.3082 C   0  0  0  0  0  0  0  0  0  0  0  0
    2.6200   -2.9573   -0.5331 C   0  0  0  0  0  0  0  0  0  0  0  0
   -0.1088    0.9413   -1.0025 H   0  0  0  0  0  0  0  0  0  0  0  0
    0.4403    0.3604    1.9466 H   0  0  0  0  0  0  0  0  0  0  0  0
   -0.6824    2.9332    1.2461 H   0  0  0  0  0  0  0  0  0  0  0  0
    1.8344    2.0545    2.2272 H   0  0  0  0  0  0  0  0  0  0  0  0
    2.8755    1.5285    0.8967 H   0  0  0  0  0  0  0  0  0  0  0  0
    1.5160    3.9203    0.7719 H   0  0  0  0  0  0  0  0  0  0  0  0
   -2.0695    1.0473    1.1796 H   0  0  0  0  0  0  0  0  0  0  0  0
   -0.6674    4.3369   -0.5781 H   0  0  0  0  0  0  0  0  0  0  0  0
    2.8164    3.0334   -0.8674 H   0  0  0  0  0  0  0  0  0  0  0  0
    2.1534    0.2420   -1.4533 H   0  0  0  0  0  0  0  0  0  0  0  0
    1.0157   -1.9055    2.0985 H   0  0  0  0  0  0  0  0  0  0  0  0
   -3.5212   -0.5765    1.4130 H   0  0  0  0  0  0  0  0  0  0  0  0
    3.1710   -1.8485   -2.2972 H   0  0  0  0  0  0  0  0  0  0  0  0
   -4.5535   -0.4266   -1.4742 H   0  0  0  0  0  0  0  0  0  0  0  0
   -5.5584   -0.3897   -0.0111 H   0  0  0  0  0  0  0  0  0  0  0  0
   -4.4285    0.9320   -0.3533 H   0  0  0  0  0  0  0  0  0  0  0  0
   -3.7069   -2.7632   -0.7232 H   0  0  0  0  0  0  0  0  0  0  0  0
   -4.6576   -2.6601    0.7696 H   0  0  0  0  0  0  0  0  0  0  0  0
   -2.9060   -2.9233    0.8442 H   0  0  0  0  0  0  0  0  0  0  0  0
    3.0547   -3.8945   -0.8648 H   0  0  0  0  0  0  0  0  0  0  0  0
  1  8  1  0  0  0  0
  1 27  1  0  0  0  0
  2 10  1  0  0  0  0
  2 28  1  0  0  0  0
  3 12  2  0  0  0  0
  4  7  1  0  0  0  0
  4 12  1  0  0  0  0
  4 26  1  0  0  0  0
  5 14  1  0  0  0  0
  5 19  2  0  0  0  0
  6  7  1  0  0  0  0
  6  9  1  0  0  0  0
  6 11  1  0  0  0  0
  6 21  1  0  0  0  0
  7  8  1  0  0  0  0
  7 20  1  0  0  0  0
  8 10  1  0  0  0  0
  8 22  1  0  0  0  0
  9 10  1  0  0  0  0
  9 23  1  0  0  0  0
  9 24  1  0  0  0  0
 10 25  1  0  0  0  0
 11 13  1  0  0  0  0
 11 14  2  0  0  0  0
 12 15  1  0  0  0  0
 13 16  2  0  0  0  0
 13 29  1  0  0  0  0
 14 30  1  0  0  0  0
 15 17  1  0  0  0  0
 15 18  1  0  0  0  0
 15 31  1  0  0  0  0
 16 19  1  0  0  0  0
 16 32  1  0  0  0  0
 17 33  1  0  0  0  0
 17 34  1  0  0  0  0
 17 35  1  0  0  0  0
 18 36  1  0  0  0  0
 18 37  1  0  0  0  0
 18 38  1  0  0  0  0
 19 39  1  0  0  0  0
M  END
> <PUBCHEM_COMPOUND_CID>
75536067

> <PUBCHEM_CONFORMER_RMSD>
0.8

> <PUBCHEM_CONFORMER_DIVERSEORDER>
1
15
17
14
13
16
10
2
6
9
3
7
12
5
19
8
4
11
18

> <PUBCHEM_MMFF94_PARTIAL_CHARGES>
23
1 -0.68
10 0.28
11 -0.14
12 0.57
13 -0.15
14 0.16
15 0.06
16 -0.15
19 0.16
2 -0.68
26 0.37
27 0.4
28 0.4
29 0.15
3 -0.57
30 0.15
32 0.15
39 0.15
4 -0.73
5 -0.62
6 0.14
7 0.3
8 0.28

> <PUBCHEM_EFFECTIVE_ROTOR_COUNT>
5

> <PUBCHEM_PHARMACOPHORE_FEATURES>
10
1 1 acceptor
1 1 donor
1 2 acceptor
1 2 donor
1 3 acceptor
1 4 donor
1 5 acceptor
3 15 17 18 hydrophobe
5 6 7 8 9 10 rings
6 5 11 13 14 16 19 rings

> <PUBCHEM_HEAVY_ATOM_COUNT>
19

> <PUBCHEM_ATOM_DEF_STEREO_COUNT>
4

> <PUBCHEM_ATOM_UDEF_STEREO_COUNT>
0

> <PUBCHEM_BOND_DEF_STEREO_COUNT>
0

> <PUBCHEM_BOND_UDEF_STEREO_COUNT>
0

> <PUBCHEM_ISOTOPIC_ATOM_COUNT>
0

> <PUBCHEM_COMPONENT_COUNT>
1

> <PUBCHEM_CACTVS_TAUTO_COUNT>
2

> <PUBCHEM_CONFORMER_ID>
048096C300000001

> <PUBCHEM_MMFF94_ENERGY>
49.1117

> <PUBCHEM_FEATURE_SELFOVERLAP>
50.757

> <PUBCHEM_SHAPE_FINGERPRINT>
11578080 2 17460859723260878084
116883 192 18339632331477061829
12553582 1 18266747883061948051
12788726 201 17975140842060633499
12841375 5 18199484309760044479
13140716 1 18124862719241181688
13533116 47 18199754799307736147
13538477 17 17614566934760605978
14178342 30 17912348029677617371
16752209 62 17759513375106892505
16945 1 17773321346633721504
17357779 13 17985247596045226237
17492 54 18190481522116952204
17818456 19 17703236109943745129
20645476 183 17180822748507789850
20645477 70 18268704077894284175
21197605 99 16822784942183053843
21524375 3 17615114924899674456
2255824 54 18339644567448251111
23184049 29 18194957444447507258
23419403 2 17462803741496646676
23530152 11 17762618799274979914
23557571 272 18055064360022501226
23598288 3 17540275145668560226
23728640 28 17111841570708946843
238 59 17834386096843162403
2748010 2 18054488245519265104
3060560 45 17977381968869876149
3091708 16 8925525903268840801
314173 41 18410581656401528347
7364860 26 18271245040063781321
81228 2 17909255897684192425
8272917 22 18194404618291243115
90525 40 16894562658743926002

> <PUBCHEM_SHAPE_MULTIPOLES>
363.44
5.66
4.33
1.13
7.62
1.59
0.04
-4.1
0.66
-2.8
0.3
-0.58
-0.13
0.5

> <PUBCHEM_SHAPE_SELFOVERLAP>
754.784

> <PUBCHEM_SHAPE_VOLUME>
207.4

> <PUBCHEM_COORDINATE_TYPE>
2
5
10

$$$$
