75537096
  -OEChem-12032416333D

 49 52  0     1  0  0  0  0  0999 V2000
    5.9705   -2.8902    1.6427 F   0  0  0  0  0  0  0  0  0  0  0  0
    2.4923    3.0500    0.0447 O   0  0  0  0  0  0  0  0  0  0  0  0
    0.3422    2.1147   -0.1023 N   0  0  0  0  0  0  0  0  0  0  0  0
   -2.1809    1.1910    0.7291 N   0  0  2  0  0  0  0  0  0  0  0  0
    2.0154    1.1164   -1.2194 N   0  0  0  0  0  0  0  0  0  0  0  0
   -4.1277   -1.5162    0.5012 N   0  0  0  0  0  0  0  0  0  0  0  0
   -0.3028    1.0601   -0.8562 C   0  0  2  0  0  0  0  0  0  0  0  0
   -1.2536    0.2693    0.0420 C   0  0  0  0  0  0  0  0  0  0  0  0
    0.8641    0.2539   -1.4230 C   0  0  0  0  0  0  0  0  0  0  0  0
   -0.4626    2.9871    0.7273 C   0  0  0  0  0  0  0  0  0  0  0  0
   -1.4399    2.1579    1.5643 C   0  0  0  0  0  0  0  0  0  0  0  0
    1.7138    2.2041   -0.3754 C   0  0  0  0  0  0  0  0  0  0  0  0
   -3.1345    0.4394    1.5448 C   0  0  0  0  0  0  0  0  0  0  0  0
    3.3283    0.7729   -1.7192 C   0  0  0  0  0  0  0  0  0  0  0  0
   -4.2172   -0.1839    0.7120 C   0  0  0  0  0  0  0  0  0  0  0  0
    4.0329   -0.2040   -0.8230 C   0  0  0  0  0  0  0  0  0  0  0  0
   -5.2330    0.6143    0.2110 C   0  0  0  0  0  0  0  0  0  0  0  0
    4.8376    0.2598    0.2178 C   0  0  0  0  0  0  0  0  0  0  0  0
    3.8828   -1.5752   -1.0306 C   0  0  0  0  0  0  0  0  0  0  0  0
   -5.1055   -2.0726   -0.2488 C   0  0  0  0  0  0  0  0  0  0  0  0
   -6.2204    0.0058   -0.5557 C   0  0  0  0  0  0  0  0  0  0  0  0
    5.4925   -0.6475    1.0506 C   0  0  0  0  0  0  0  0  0  0  0  0
    4.5377   -2.4824   -0.1978 C   0  0  0  0  0  0  0  0  0  0  0  0
   -6.1628   -1.3628   -0.7945 C   0  0  0  0  0  0  0  0  0  0  0  0
    5.3425   -2.0186    0.8427 C   0  0  0  0  0  0  0  0  0  0  0  0
   -5.0117   -3.5431   -0.4843 C   0  0  0  0  0  0  0  0  0  0  0  0
   -0.8577    1.5423   -1.6717 H   0  0  0  0  0  0  0  0  0  0  0  0
   -1.7982   -0.4425   -0.5885 H   0  0  0  0  0  0  0  0  0  0  0  0
   -0.6837   -0.3124    0.7794 H   0  0  0  0  0  0  0  0  0  0  0  0
    1.0257   -0.6824   -0.8801 H   0  0  0  0  0  0  0  0  0  0  0  0
    0.7371    0.0422   -2.4889 H   0  0  0  0  0  0  0  0  0  0  0  0
   -1.0063    3.6626    0.0569 H   0  0  0  0  0  0  0  0  0  0  0  0
    0.1899    3.5931    1.3636 H   0  0  0  0  0  0  0  0  0  0  0  0
   -0.8869    1.6287    2.3519 H   0  0  0  0  0  0  0  0  0  0  0  0
   -2.1368    2.8465    2.0568 H   0  0  0  0  0  0  0  0  0  0  0  0
   -3.6322    1.1038    2.2648 H   0  0  0  0  0  0  0  0  0  0  0  0
   -2.6311   -0.3254    2.1517 H   0  0  0  0  0  0  0  0  0  0  0  0
    3.9220    1.6920   -1.7951 H   0  0  0  0  0  0  0  0  0  0  0  0
    3.2271    0.3773   -2.7365 H   0  0  0  0  0  0  0  0  0  0  0  0
   -5.2697    1.6813    0.4030 H   0  0  0  0  0  0  0  0  0  0  0  0
    4.9627    1.3252    0.3913 H   0  0  0  0  0  0  0  0  0  0  0  0
    3.2592   -1.9493   -1.8381 H   0  0  0  0  0  0  0  0  0  0  0  0
   -7.0334    0.5970   -0.9662 H   0  0  0  0  0  0  0  0  0  0  0  0
    6.1188   -0.2868    1.8611 H   0  0  0  0  0  0  0  0  0  0  0  0
    4.4211   -3.5500   -0.3592 H   0  0  0  0  0  0  0  0  0  0  0  0
   -6.9275   -1.8486   -1.3911 H   0  0  0  0  0  0  0  0  0  0  0  0
   -4.9363   -3.7529   -1.5560 H   0  0  0  0  0  0  0  0  0  0  0  0
   -4.1272   -3.9642    0.0049 H   0  0  0  0  0  0  0  0  0  0  0  0
   -5.8940   -4.0503   -0.0812 H   0  0  0  0  0  0  0  0  0  0  0  0
  1 25  1  0  0  0  0
  2 12  2  0  0  0  0
  3  7  1  0  0  0  0
  3 10  1  0  0  0  0
  3 12  1  0  0  0  0
  4  8  1  0  0  0  0
  4 11  1  0  0  0  0
  4 13  1  0  0  0  0
  5  9  1  0  0  0  0
  5 12  1  0  0  0  0
  5 14  1  0  0  0  0
  6 15  1  0  0  0  0
  6 20  2  0  0  0  0
  7  8  1  0  0  0  0
  7  9  1  0  0  0  0
  7 27  1  0  0  0  0
  8 28  1  0  0  0  0
  8 29  1  0  0  0  0
  9 30  1  0  0  0  0
  9 31  1  0  0  0  0
 10 11  1  0  0  0  0
 10 32  1  0  0  0  0
 10 33  1  0  0  0  0
 11 34  1  0  0  0  0
 11 35  1  0  0  0  0
 13 15  1  0  0  0  0
 13 36  1  0  0  0  0
 13 37  1  0  0  0  0
 14 16  1  0  0  0  0
 14 38  1  0  0  0  0
 14 39  1  0  0  0  0
 15 17  2  0  0  0  0
 16 18  2  0  0  0  0
 16 19  1  0  0  0  0
 17 21  1  0  0  0  0
 17 40  1  0  0  0  0
 18 22  1  0  0  0  0
 18 41  1  0  0  0  0
 19 23  2  0  0  0  0
 19 42  1  0  0  0  0
 20 24  1  0  0  0  0
 20 26  1  0  0  0  0
 21 24  2  0  0  0  0
 21 43  1  0  0  0  0
 22 25  2  0  0  0  0
 22 44  1  0  0  0  0
 23 25  1  0  0  0  0
 23 45  1  0  0  0  0
 24 46  1  0  0  0  0
 26 47  1  0  0  0  0
 26 48  1  0  0  0  0
 26 49  1  0  0  0  0
M  END
> <PUBCHEM_COMPOUND_CID>
75537096

> <PUBCHEM_CONFORMER_RMSD>
0.8

> <PUBCHEM_CONFORMER_DIVERSEORDER>
1
49
125
128
78
129
39
110
90
102
108
40
31
100
132
32
29
68
123
101
86
119
118
95
77
34
82
111
120
26
74
131
15
114
7
103
41
130
44
38
84
121
124
97
70
25
24
107
80
11
73
122
109
57
19
22
72
126
87
85
45
115
133
75
8
37
89
134
4
96
43
12
51
66
54
106
116
30
81
35
9
67
65
53
105
63
112
27
62
93
79
98
59
58
56
33
13
46
3
69
127
48
117
64
99
42
18
20
47
76
83
113
36
52
94
16
88
61
10
55
23
92
50
28
17
21
104
6
71
60
2
14
91
5

> <PUBCHEM_MMFF94_PARTIAL_CHARGES>
33
1 -0.19
10 0.3
11 0.27
12 0.69
13 0.41
14 0.44
15 0.17
16 -0.14
17 -0.15
18 -0.15
19 -0.15
2 -0.57
20 0.17
21 -0.15
22 -0.15
23 -0.15
24 -0.15
25 0.19
26 0.14
3 -0.66
4 -0.81
40 0.15
41 0.15
42 0.15
43 0.15
44 0.15
45 0.15
46 0.15
5 -0.66
6 -0.62
7 0.3
8 0.27
9 0.3

> <PUBCHEM_EFFECTIVE_ROTOR_COUNT>
5.2

> <PUBCHEM_PHARMACOPHORE_FEATURES>
7
1 2 acceptor
1 4 cation
1 6 acceptor
5 3 5 7 9 12 rings
6 16 18 19 22 23 25 rings
6 3 4 7 8 10 11 rings
6 6 15 17 20 21 24 rings

> <PUBCHEM_HEAVY_ATOM_COUNT>
26

> <PUBCHEM_ATOM_DEF_STEREO_COUNT>
1

> <PUBCHEM_ATOM_UDEF_STEREO_COUNT>
0

> <PUBCHEM_BOND_DEF_STEREO_COUNT>
0

> <PUBCHEM_BOND_UDEF_STEREO_COUNT>
0

> <PUBCHEM_ISOTOPIC_ATOM_COUNT>
0

> <PUBCHEM_COMPONENT_COUNT>
1

> <PUBCHEM_CACTVS_TAUTO_COUNT>
1

> <PUBCHEM_CONFORMER_ID>
04809AC800000001

> <PUBCHEM_MMFF94_ENERGY>
60.8156

> <PUBCHEM_FEATURE_SELFOVERLAP>
35.618

> <PUBCHEM_SHAPE_FINGERPRINT>
10074138 170 17487074266721742457
10447042 23 18333455348213685116
10721379 63 8213880201475398400
11273773 42 11095296643754091650
11796584 16 17240206559748753552
11963148 33 17478884343893316199
1200032 147 12247386935441278978
12390115 104 11602824592960193525
12422481 6 17132121212474370869
12596602 18 17704076170743973226
12839892 36 17917999347408538535
13533116 47 18408042918528458288
13782708 43 17896048788183525275
13828863 39 10807929371292150867
13885169 86 10951752110629191874
14251740 57 18130516223849272406
14251751 18 18408600374944083135
14347332 77 18340771567737373999
1454969 45 18336273418534070916
14848178 5 18410013229952860743
15163728 17 10015569628472095264
15183329 4 15574431007587306165
15188451 53 18338792317430447882
15250474 111 18340777013101452855
15475509 8 15430317980112044557
15728490 51 18343018935123308110
17857418 61 18409733967037171527
18222031 100 18342751693130367332
1979834 28 17561091288874172566
20028762 73 18411699846979673086
20567600 234 15841544206212579361
20567600 70 18342458196218226959
21315764 119 13117998864780399706
21458453 9 15840407358461044786
22061861 79 16877947148109931983
22079108 93 14117512125712507260
23559900 14 18341604976039241313
23572383 38 18202287970391059303
2838139 119 8214138530355743010
3004659 81 18336838557997406964
312425 54 17416700050148931611
339767 52 18272650147521451359
376196 1 14494165424976603836
38570 142 11095879398070434176
3886686 26 17192359937156367338
4258327 124 8862952659070127187
4339292 15 16661481794127406858
439807 62 18263649636122042939
444735 79 18341317952149115176
46194498 28 15070341321841741205
463206 1 18335427884790453867
5085150 59 18060699460478931279
5104073 3 17917161606032919321
531348 171 18187080634157928909
613672 6 17918002676482608791
7808743 9 8358251523740415753
7970288 3 18338517430907819150
8988823 20 18411138065182912108
960060 61 17530974604563633188
96874 4 18335412457078347258

> <PUBCHEM_SHAPE_MULTIPOLES>
502
16.28
3.55
1.42
5.12
0.7
0.08
14.68
1.53
-0.43
0.59
-1
-0.04
-2.3

> <PUBCHEM_SHAPE_SELFOVERLAP>
1078.802

> <PUBCHEM_SHAPE_VOLUME>
279

> <PUBCHEM_COORDINATE_TYPE>
2
5
10

$$$$
