75367161
  -OEChem-12032416383D

 48 51  0     1  0  0  0  0  0999 V2000
   -1.7021    1.2236    1.0173 F   0  0  0  0  0  0  0  0  0  0  0  0
   -6.2956    2.3473    0.9909 F   0  0  0  0  0  0  0  0  0  0  0  0
    2.0750   -3.8971    1.5735 O   0  0  0  0  0  0  0  0  0  0  0  0
    2.0686   -1.4249    0.1285 N   0  0  1  0  0  0  0  0  0  0  0  0
   -1.0189   -1.1815   -0.0011 N   0  0  0  0  0  0  0  0  0  0  0  0
   -0.7519   -2.2916   -1.9058 N   0  0  0  0  0  0  0  0  0  0  0  0
    1.1119   -2.5131   -0.1971 C   0  0  1  0  0  0  0  0  0  0  0  0
    3.2877   -1.9838    0.7400 C   0  0  0  0  0  0  0  0  0  0  0  0
    0.8518   -3.3798    1.0506 C   0  0  0  0  0  0  0  0  0  0  0  0
    2.4404   -0.6428   -1.0563 C   0  0  0  0  0  0  0  0  0  0  0  0
    2.9421   -2.8321    1.9563 C   0  0  0  0  0  0  0  0  0  0  0  0
   -0.2203   -2.0123   -0.7366 C   0  0  0  0  0  0  0  0  0  0  0  0
    2.9400    0.7290   -0.6884 C   0  0  0  0  0  0  0  0  0  0  0  0
   -2.1307   -0.9139   -0.7492 C   0  0  0  0  0  0  0  0  0  0  0  0
   -1.9431   -1.6099   -1.9200 C   0  0  0  0  0  0  0  0  0  0  0  0
    2.0363    1.7221   -0.3102 C   0  0  0  0  0  0  0  0  0  0  0  0
    4.3065    1.0066   -0.7243 C   0  0  0  0  0  0  0  0  0  0  0  0
   -3.2045   -0.0684   -0.2980 C   0  0  0  0  0  0  0  0  0  0  0  0
    2.4991    2.9927    0.0321 C   0  0  0  0  0  0  0  0  0  0  0  0
    4.7694    2.2772   -0.3824 C   0  0  0  0  0  0  0  0  0  0  0  0
    3.8656    3.2703   -0.0042 C   0  0  0  0  0  0  0  0  0  0  0  0
   -2.9476    0.9829    0.5822 C   0  0  0  0  0  0  0  0  0  0  0  0
   -4.5055   -0.3036   -0.7428 C   0  0  0  0  0  0  0  0  0  0  0  0
    4.3603    4.6291    0.3605 C   0  0  0  0  0  0  0  0  0  0  0  0
   -3.9919    1.7987    1.0178 C   0  0  0  0  0  0  0  0  0  0  0  0
   -5.5498    0.5120   -0.3069 C   0  0  0  0  0  0  0  0  0  0  0  0
   -5.2929    1.5633    0.5733 C   0  0  0  0  0  0  0  0  0  0  0  0
    1.5681   -3.1553   -0.9644 H   0  0  0  0  0  0  0  0  0  0  0  0
    3.9621   -1.1868    1.0698 H   0  0  0  0  0  0  0  0  0  0  0  0
    3.8259   -2.6070    0.0135 H   0  0  0  0  0  0  0  0  0  0  0  0
    0.3308   -2.8274    1.8435 H   0  0  0  0  0  0  0  0  0  0  0  0
    0.2201   -4.2369    0.7901 H   0  0  0  0  0  0  0  0  0  0  0  0
    1.5808   -0.4783   -1.7184 H   0  0  0  0  0  0  0  0  0  0  0  0
    3.1710   -1.1740   -1.6821 H   0  0  0  0  0  0  0  0  0  0  0  0
    3.8521   -3.2771    2.3714 H   0  0  0  0  0  0  0  0  0  0  0  0
    2.4727   -2.2367    2.7490 H   0  0  0  0  0  0  0  0  0  0  0  0
   -0.8172   -0.8306    0.9261 H   0  0  0  0  0  0  0  0  0  0  0  0
   -2.5973   -1.6588   -2.7791 H   0  0  0  0  0  0  0  0  0  0  0  0
    0.9692    1.5181   -0.2776 H   0  0  0  0  0  0  0  0  0  0  0  0
    5.0215    0.2421   -1.0166 H   0  0  0  0  0  0  0  0  0  0  0  0
    1.7852    3.7573    0.3269 H   0  0  0  0  0  0  0  0  0  0  0  0
    5.8365    2.4808   -0.4126 H   0  0  0  0  0  0  0  0  0  0  0  0
   -4.7341   -1.1196   -1.4239 H   0  0  0  0  0  0  0  0  0  0  0  0
    4.5712    4.6765    1.4334 H   0  0  0  0  0  0  0  0  0  0  0  0
    5.2752    4.8771   -0.1884 H   0  0  0  0  0  0  0  0  0  0  0  0
    3.6207    5.3984    0.1138 H   0  0  0  0  0  0  0  0  0  0  0  0
   -3.7920    2.6175    1.7026 H   0  0  0  0  0  0  0  0  0  0  0  0
   -6.5631    0.3286   -0.6517 H   0  0  0  0  0  0  0  0  0  0  0  0
  1 22  1  0  0  0  0
  2 27  1  0  0  0  0
  3  9  1  0  0  0  0
  3 11  1  0  0  0  0
  4  7  1  0  0  0  0
  4  8  1  0  0  0  0
  4 10  1  0  0  0  0
  5 12  1  0  0  0  0
  5 14  1  0  0  0  0
  5 37  1  0  0  0  0
  6 12  2  0  0  0  0
  6 15  1  0  0  0  0
  7  9  1  0  0  0  0
  7 12  1  0  0  0  0
  7 28  1  0  0  0  0
  8 11  1  0  0  0  0
  8 29  1  0  0  0  0
  8 30  1  0  0  0  0
  9 31  1  0  0  0  0
  9 32  1  0  0  0  0
 10 13  1  0  0  0  0
 10 33  1  0  0  0  0
 10 34  1  0  0  0  0
 11 35  1  0  0  0  0
 11 36  1  0  0  0  0
 13 16  2  0  0  0  0
 13 17  1  0  0  0  0
 14 15  2  0  0  0  0
 14 18  1  0  0  0  0
 15 38  1  0  0  0  0
 16 19  1  0  0  0  0
 16 39  1  0  0  0  0
 17 20  2  0  0  0  0
 17 40  1  0  0  0  0
 18 22  2  0  0  0  0
 18 23  1  0  0  0  0
 19 21  2  0  0  0  0
 19 41  1  0  0  0  0
 20 21  1  0  0  0  0
 20 42  1  0  0  0  0
 21 24  1  0  0  0  0
 22 25  1  0  0  0  0
 23 26  2  0  0  0  0
 23 43  1  0  0  0  0
 24 44  1  0  0  0  0
 24 45  1  0  0  0  0
 24 46  1  0  0  0  0
 25 27  2  0  0  0  0
 25 47  1  0  0  0  0
 26 27  1  0  0  0  0
 26 48  1  0  0  0  0
M  END
> <PUBCHEM_COMPOUND_CID>
75367161

> <PUBCHEM_CONFORMER_RMSD>
0.8

> <PUBCHEM_CONFORMER_DIVERSEORDER>
1
53
71
91
73
4
61
60
164
82
114
126
112
108
116
110
84
146
134
148
81
74
54
95
149
135
69
14
132
161
162
57
80
39
10
151
43
154
141
156
117
98
35
88
122
106
9
150
142
90
18
52
19
137
97
94
124
93
160
34
22
6
59
145
165
113
7
42
158
128
79
16
62
100
133
125
121
159
118
75
83
123
65
13
85
138
152
105
67
72
29
76
99
87
24
147
51
11
120
143
115
131
63
33
25
163
21
50
130
101
127
155
119
37
36
111
66
153
8
49
157
144
103
45
70
86
104
48
44
55
28
58
102
139
5
96
12
30
64
46
56
2
136
32
3
107
15
20
68
140
27
77
129
40
89
109
38
26
23
17
41
78
92
31
47

> <PUBCHEM_MMFF94_PARTIAL_CHARGES>
36
1 -0.19
10 0.41
11 0.28
12 0.01
13 -0.14
14 -0.2
15 0.08
16 -0.15
17 -0.15
18 0.05
19 -0.15
2 -0.19
20 -0.15
21 -0.14
22 0.19
23 -0.15
24 0.14
25 -0.15
26 -0.15
27 0.19
3 -0.56
37 0.27
38 0.15
39 0.15
4 -0.81
40 0.15
41 0.15
42 0.15
43 0.15
47 0.15
48 0.15
5 0.03
6 -0.57
7 0.45
8 0.27
9 0.28

> <PUBCHEM_EFFECTIVE_ROTOR_COUNT>
5.2

> <PUBCHEM_PHARMACOPHORE_FEATURES>
8
1 3 acceptor
1 4 cation
1 5 donor
3 5 6 12 cation
5 5 6 12 14 15 rings
6 13 16 17 19 20 21 rings
6 18 22 23 25 26 27 rings
6 3 4 7 8 9 11 rings

> <PUBCHEM_HEAVY_ATOM_COUNT>
27

> <PUBCHEM_ATOM_DEF_STEREO_COUNT>
1

> <PUBCHEM_ATOM_UDEF_STEREO_COUNT>
0

> <PUBCHEM_BOND_DEF_STEREO_COUNT>
0

> <PUBCHEM_BOND_UDEF_STEREO_COUNT>
0

> <PUBCHEM_ISOTOPIC_ATOM_COUNT>
0

> <PUBCHEM_COMPONENT_COUNT>
1

> <PUBCHEM_CACTVS_TAUTO_COUNT>
2

> <PUBCHEM_CONFORMER_ID>
047E02F900000001

> <PUBCHEM_MMFF94_ENERGY>
57.3574

> <PUBCHEM_FEATURE_SELFOVERLAP>
40.599

> <PUBCHEM_SHAPE_FINGERPRINT>
10165383 225 17677067780052087062
10937287 8 18266742557259822060
1100329 8 18408600371287770218
12107183 9 18117820313787103912
12166972 35 18057039108037513483
12293681 160 17328273240783170486
12403259 118 18198334066706230619
12633257 1 18115589223630531899
12788726 201 17489317334703488217
13583140 156 17897437286548597447
13878862 14 18043229276958871885
14251764 75 18271820054881784265
14849402 71 18333733511986836058
14955137 171 18264770948618795682
15142526 21 18335139846781656090
15463212 79 18121488313544980377
15475509 8 18199475368645950094
15475509 84 17755857520176832772
17980427 23 17985799637146140746
18681886 176 18130787798446330414
20511986 3 18059564806521767333
20715895 44 17548412606152823729
21033648 144 18333725828079393151
21344244 78 17975962185926025650
21864079 5 18343867744334185359
22122407 14 18193851349241983097
22149856 69 17202772476513846171
23558518 356 18049726522910770492
23559900 14 17416127166637911447
23845131 108 18114461266207696163
245318 6 18190196743857392613
283562 15 17831572450571739447
345986 75 17029082498912608954
376196 1 18057041526800407148
38570 142 18337124422889759894
392239 28 17902804290081596131
394222 165 18412826880287831443
474 4 18408035225714490890
474144 1 18341609265851720801
5048184 11 18341050842815181268
5104073 3 18260555498504959235
5252454 2 18337947986721006756
57307002 182 18335972108802125963
57527295 17 18266467688829660350
5895379 119 17774449252685533984
59124914 9 18411140281581111580
67856867 119 18337104580014218907
7288768 16 18116712026654359586
9981440 41 17910106151660534890

> <PUBCHEM_SHAPE_MULTIPOLES>
520.29
11.64
5.22
1.43
10.61
0.18
0.01
12.95
-1.26
-6.64
-2.1
0.16
-1.16
-2.72

> <PUBCHEM_SHAPE_SELFOVERLAP>
1134.22

> <PUBCHEM_SHAPE_VOLUME>
285.2

> <PUBCHEM_COORDINATE_TYPE>
2
5
10

$$$$
