75536606
  -OEChem-12032416383D

 40 42  0     1  0  0  0  0  0999 V2000
    6.3812    0.5324   -0.9902 S   0  0  0  0  0  0  0  0  0  0  0  0
    0.3500   -0.9673    0.2096 O   0  0  0  0  0  0  0  0  0  0  0  0
   -0.8059    2.4115   -0.1819 O   0  0  0  0  0  0  0  0  0  0  0  0
    3.7924    1.8211   -0.4081 O   0  0  0  0  0  0  0  0  0  0  0  0
   -3.0743    0.2544    0.0965 N   0  0  0  0  0  0  0  0  0  0  0  0
    2.8826    0.1761    0.9517 N   0  0  0  0  0  0  0  0  0  0  0  0
   -6.1674   -1.4538   -0.1404 N   0  0  0  0  0  0  0  0  0  0  0  0
   -7.4862    0.3022    0.1899 N   0  0  0  0  0  0  0  0  0  0  0  0
   -1.6853    0.1380   -0.3169 C   0  0  1  0  0  0  0  0  0  0  0  0
   -0.7580    1.1151    0.3817 C   0  0  1  0  0  0  0  0  0  0  0  0
    0.5927    0.4485    0.1583 C   0  0  1  0  0  0  0  0  0  0  0  0
   -1.0632   -1.1944    0.0675 C   0  0  0  0  0  0  0  0  0  0  0  0
    1.6299    0.8296    1.1996 C   0  0  0  0  0  0  0  0  0  0  0  0
   -3.9574   -0.4502   -0.8251 C   0  0  0  0  0  0  0  0  0  0  0  0
   -5.3995   -0.3544   -0.4034 C   0  0  0  0  0  0  0  0  0  0  0  0
    3.8786    0.7332    0.1554 C   0  0  0  0  0  0  0  0  0  0  0  0
   -6.2351    0.7170   -0.1928 C   0  0  0  0  0  0  0  0  0  0  0  0
    5.1077   -0.0817   -0.0243 C   0  0  0  0  0  0  0  0  0  0  0  0
   -7.4116   -1.0100    0.2116 C   0  0  0  0  0  0  0  0  0  0  0  0
    5.4033   -1.3243    0.4918 C   0  0  0  0  0  0  0  0  0  0  0  0
    6.6925   -1.7779    0.0891 C   0  0  0  0  0  0  0  0  0  0  0  0
    7.3330   -0.8650   -0.7195 C   0  0  0  0  0  0  0  0  0  0  0  0
   -1.5974    0.3013   -1.4005 H   0  0  0  0  0  0  0  0  0  0  0  0
   -0.9922    1.1858    1.4513 H   0  0  0  0  0  0  0  0  0  0  0  0
    0.9776    0.6776   -0.8442 H   0  0  0  0  0  0  0  0  0  0  0  0
   -1.4294   -1.5623    1.0329 H   0  0  0  0  0  0  0  0  0  0  0  0
   -1.2309   -1.9719   -0.6839 H   0  0  0  0  0  0  0  0  0  0  0  0
    1.3091    0.5100    2.1972 H   0  0  0  0  0  0  0  0  0  0  0  0
    1.7821    1.9141    1.2148 H   0  0  0  0  0  0  0  0  0  0  0  0
   -3.3333    1.2412    0.1152 H   0  0  0  0  0  0  0  0  0  0  0  0
   -3.6773   -1.5087   -0.8881 H   0  0  0  0  0  0  0  0  0  0  0  0
   -3.8740   -0.0277   -1.8345 H   0  0  0  0  0  0  0  0  0  0  0  0
   -0.5987    2.3409   -1.1292 H   0  0  0  0  0  0  0  0  0  0  0  0
    3.0179   -0.7355    1.3752 H   0  0  0  0  0  0  0  0  0  0  0  0
   -5.8728   -2.4198   -0.1948 H   0  0  0  0  0  0  0  0  0  0  0  0
   -6.0021    1.7669   -0.2973 H   0  0  0  0  0  0  0  0  0  0  0  0
   -8.2116   -1.6890    0.4700 H   0  0  0  0  0  0  0  0  0  0  0  0
    4.7458   -1.9010    1.1289 H   0  0  0  0  0  0  0  0  0  0  0  0
    7.1281   -2.7257    0.3777 H   0  0  0  0  0  0  0  0  0  0  0  0
    8.3142   -0.9519   -1.1643 H   0  0  0  0  0  0  0  0  0  0  0  0
  1 18  1  0  0  0  0
  1 22  1  0  0  0  0
  2 11  1  0  0  0  0
  2 12  1  0  0  0  0
  3 10  1  0  0  0  0
  3 33  1  0  0  0  0
  4 16  2  0  0  0  0
  5  9  1  0  0  0  0
  5 14  1  0  0  0  0
  5 30  1  0  0  0  0
  6 13  1  0  0  0  0
  6 16  1  0  0  0  0
  6 34  1  0  0  0  0
  7 15  1  0  0  0  0
  7 19  1  0  0  0  0
  7 35  1  0  0  0  0
  8 17  1  0  0  0  0
  8 19  2  0  0  0  0
  9 10  1  0  0  0  0
  9 12  1  0  0  0  0
  9 23  1  0  0  0  0
 10 11  1  0  0  0  0
 10 24  1  0  0  0  0
 11 13  1  0  0  0  0
 11 25  1  0  0  0  0
 12 26  1  0  0  0  0
 12 27  1  0  0  0  0
 13 28  1  0  0  0  0
 13 29  1  0  0  0  0
 14 15  1  0  0  0  0
 14 31  1  0  0  0  0
 14 32  1  0  0  0  0
 15 17  2  0  0  0  0
 16 18  1  0  0  0  0
 17 36  1  0  0  0  0
 18 20  2  0  0  0  0
 19 37  1  0  0  0  0
 20 21  1  0  0  0  0
 20 38  1  0  0  0  0
 21 22  2  0  0  0  0
 21 39  1  0  0  0  0
 22 40  1  0  0  0  0
M  END
> <PUBCHEM_COMPOUND_CID>
75536606

> <PUBCHEM_CONFORMER_RMSD>
1

> <PUBCHEM_CONFORMER_DIVERSEORDER>
1
89
126
33
97
120
2
128
122
56
55
26
14
75
90
67
52
124
116
104
21
81
107
132
112
11
62
91
27
109
105
77
32
106
125
25
34
38
95
114
10
41
60
85
57
131
108
117
115
133
70
28
53
49
111
93
50
63
88
51
110
79
130
66
13
78
65
86
87
6
119
3
37
61
47
96
23
22
20
68
64
58
101
39
84
43
103
8
73
92
36
46
102
54
44
71
129
48
24
9
29
35
42
118
127
99
94
31
69
82
30
83
123
5
17
19
121
4
98
18
100
40
59
16
80
15
72
45
113
76
12
74
7

> <PUBCHEM_MMFF94_PARTIAL_CHARGES>
31
1 -0.08
10 0.28
11 0.28
12 0.28
13 0.3
14 0.45
15 -0.33
16 0.71
17 0.08
18 -0.05
19 0.04
2 -0.56
20 -0.15
21 -0.15
22 -0.11
3 -0.68
30 0.36
33 0.4
34 0.37
35 0.27
36 0.15
37 0.15
38 0.15
39 0.15
4 -0.57
40 0.15
5 -0.9
6 -0.73
7 0.03
8 -0.57
9 0.27

> <PUBCHEM_EFFECTIVE_ROTOR_COUNT>
8

> <PUBCHEM_PHARMACOPHORE_FEATURES>
12
1 2 acceptor
1 3 acceptor
1 3 donor
1 4 acceptor
1 5 cation
1 5 donor
1 6 donor
1 7 donor
3 7 8 19 cation
5 1 18 20 21 22 rings
5 2 9 10 11 12 rings
5 7 8 15 17 19 rings

> <PUBCHEM_HEAVY_ATOM_COUNT>
22

> <PUBCHEM_ATOM_DEF_STEREO_COUNT>
3

> <PUBCHEM_ATOM_UDEF_STEREO_COUNT>
0

> <PUBCHEM_BOND_DEF_STEREO_COUNT>
0

> <PUBCHEM_BOND_UDEF_STEREO_COUNT>
0

> <PUBCHEM_ISOTOPIC_ATOM_COUNT>
0

> <PUBCHEM_COMPONENT_COUNT>
1

> <PUBCHEM_CACTVS_TAUTO_COUNT>
4

> <PUBCHEM_CONFORMER_ID>
048098DE00000001

> <PUBCHEM_MMFF94_ENERGY>
28.8912

> <PUBCHEM_FEATURE_SELFOVERLAP>
60.897

> <PUBCHEM_SHAPE_FINGERPRINT>
10 15 10952045663153554606
10299344 5 18410576184475562451
106641 1 9295280651736758021
11524674 6 16630524055402212095
11638347 137 12607410987852585228
11719270 70 17775568624147713414
11724838 91 8574706897617145098
12166972 35 18040999552718321316
13533116 47 18410571791214427668
13685833 64 18060419114693113922
13885169 127 18202003187909657353
13914758 101 15123517990675870707
14123256 10 13840264788374558263
14251752 14 18342736299819748573
14251764 18 17704075101086145632
14251764 46 17095241419204153763
14429380 56 8214135218620051155
14933364 13 18186519908359380293
15048467 5 10953459626464205430
15183329 4 18202286891858070594
15849732 13 17385444332038123207
18006028 8 17203609285090284513
21150785 3 17167582687389845030
21267235 1 18410857654941015049
21781051 124 18337964479263794482
220451 1 16588016918792391747
221357 26 18040152908060061460
22224240 67 10809344451247092064
22956985 138 17199407897544505406
23035841 295 18411134740893737331
23522609 53 18127158383541128088
23559900 14 18339073912861668648
246663 6 18342741814315176471
28498 318 17989205919335498847
300161 21 8358257051115380040
3004659 81 18408601470577546440
328311 84 18410577296977736659
33532 11 18412823581737253479
34797466 226 16515688840388274630
4107672 100 18114457856525727357
465052 167 18273496801423195142
5207 217 13623530156135478961
5758199 1 11458420216056452485
59682541 35 10231746791167535046
59755656 215 18273496749615010583
59755656 520 18260543450963983399
6438161 24 18260541196480368642

> <PUBCHEM_SHAPE_MULTIPOLES>
419.07
23.1
1.62
0.86
10.58
0.23
-0.01
-8.16
3.38
-0.89
0
-0.63
0.06
-0.27

> <PUBCHEM_SHAPE_SELFOVERLAP>
872.347

> <PUBCHEM_SHAPE_VOLUME>
239.9

> <PUBCHEM_COORDINATE_TYPE>
2
5
10

$$$$
