7142422
  -OEChem-12032416133D

 55 59  0     1  0  0  0  0  0999 V2000
   -6.4974    2.5533    1.7246 F   0  0  0  0  0  0  0  0  0  0  0  0
   -8.1583    2.4814    0.3317 F   0  0  0  0  0  0  0  0  0  0  0  0
   -6.2111    3.1806   -0.3379 F   0  0  0  0  0  0  0  0  0  0  0  0
    2.8875   -2.4607    0.4773 O   0  0  0  0  0  0  0  0  0  0  0  0
   -0.3713    1.0730   -1.7190 O   0  0  0  0  0  0  0  0  0  0  0  0
    5.5317   -0.0677    2.4120 O   0  0  0  0  0  0  0  0  0  0  0  0
    1.2702    0.3083   -0.2800 N   0  0  0  0  0  0  0  0  0  0  0  0
    3.9993    0.3193    0.7214 N   0  0  0  0  0  0  0  0  0  0  0  0
    0.6473   -2.5606    0.0838 N   0  0  0  0  0  0  0  0  0  0  0  0
    1.6207   -0.4520    0.9112 C   0  0  2  0  0  0  0  0  0  0  0  0
    2.8634    0.0985    1.6213 C   0  0  0  0  0  0  0  0  0  0  0  0
    2.2697    1.2438   -0.7972 C   0  0  0  0  0  0  0  0  0  0  0  0
    3.6809    0.6905   -0.6633 C   0  0  0  0  0  0  0  0  0  0  0  0
    1.7952   -1.8899    0.4491 C   0  0  0  0  0  0  0  0  0  0  0  0
   -0.0065    0.2983   -0.8331 C   0  0  0  0  0  0  0  0  0  0  0  0
   -0.9865   -0.7170   -0.3626 C   0  0  0  0  0  0  0  0  0  0  0  0
   -0.6595   -2.0461   -0.0474 C   0  0  0  0  0  0  0  0  0  0  0  0
    5.3069    0.2484    1.2420 C   0  0  0  0  0  0  0  0  0  0  0  0
   -2.3398   -0.3357   -0.4213 C   0  0  0  0  0  0  0  0  0  0  0  0
   -1.6972   -2.9775    0.1326 C   0  0  0  0  0  0  0  0  0  0  0  0
   -3.3558   -1.2625   -0.1918 C   0  0  0  0  0  0  0  0  0  0  0  0
    6.4075    0.5780    0.3399 C   0  0  0  0  0  0  0  0  0  0  0  0
   -3.0346   -2.5875    0.0718 C   0  0  0  0  0  0  0  0  0  0  0  0
   -4.7413   -0.8504   -0.2520 C   0  0  0  0  0  0  0  0  0  0  0  0
    6.8571    1.8922    0.2493 C   0  0  0  0  0  0  0  0  0  0  0  0
    6.9999   -0.4241   -0.4230 C   0  0  0  0  0  0  0  0  0  0  0  0
   -5.0992    0.4490    0.1079 C   0  0  0  0  0  0  0  0  0  0  0  0
   -5.7198   -1.7531   -0.6687 C   0  0  0  0  0  0  0  0  0  0  0  0
    7.9083    2.2070   -0.6118 C   0  0  0  0  0  0  0  0  0  0  0  0
    8.0511   -0.1092   -1.2841 C   0  0  0  0  0  0  0  0  0  0  0  0
   -6.4354    0.8456    0.0510 C   0  0  0  0  0  0  0  0  0  0  0  0
    8.5053    1.2064   -1.3785 C   0  0  0  0  0  0  0  0  0  0  0  0
   -7.0559   -1.3566   -0.7255 C   0  0  0  0  0  0  0  0  0  0  0  0
   -7.4136   -0.0572   -0.3658 C   0  0  0  0  0  0  0  0  0  0  0  0
   -6.8188    2.2345    0.4359 C   0  0  0  0  0  0  0  0  0  0  0  0
    0.7864   -0.4191    1.6228 H   0  0  0  0  0  0  0  0  0  0  0  0
    2.6331    1.0753    2.0651 H   0  0  0  0  0  0  0  0  0  0  0  0
    3.1615   -0.5637    2.4420 H   0  0  0  0  0  0  0  0  0  0  0  0
    2.1629    2.1743   -0.2265 H   0  0  0  0  0  0  0  0  0  0  0  0
    2.0548    1.4764   -1.8457 H   0  0  0  0  0  0  0  0  0  0  0  0
    3.7952   -0.2172   -1.2675 H   0  0  0  0  0  0  0  0  0  0  0  0
    4.3964    1.4282   -1.0352 H   0  0  0  0  0  0  0  0  0  0  0  0
    0.7408   -3.5696   -0.0070 H   0  0  0  0  0  0  0  0  0  0  0  0
   -2.5790    0.6899   -0.6954 H   0  0  0  0  0  0  0  0  0  0  0  0
   -1.4703   -4.0177    0.3596 H   0  0  0  0  0  0  0  0  0  0  0  0
   -3.7862   -3.3462    0.2714 H   0  0  0  0  0  0  0  0  0  0  0  0
    6.3983    2.6789    0.8423 H   0  0  0  0  0  0  0  0  0  0  0  0
    6.6527   -1.4519   -0.3570 H   0  0  0  0  0  0  0  0  0  0  0  0
   -4.3680    1.1693    0.4666 H   0  0  0  0  0  0  0  0  0  0  0  0
   -5.4852   -2.7650   -0.9873 H   0  0  0  0  0  0  0  0  0  0  0  0
    8.2617    3.2313   -0.6855 H   0  0  0  0  0  0  0  0  0  0  0  0
    8.5159   -0.8881   -1.8813 H   0  0  0  0  0  0  0  0  0  0  0  0
    9.3237    1.4516   -2.0491 H   0  0  0  0  0  0  0  0  0  0  0  0
   -7.8171   -2.0571   -1.0566 H   0  0  0  0  0  0  0  0  0  0  0  0
   -8.4593    0.2333   -0.4183 H   0  0  0  0  0  0  0  0  0  0  0  0
  1 35  1  0  0  0  0
  2 35  1  0  0  0  0
  3 35  1  0  0  0  0
  4 14  2  0  0  0  0
  5 15  2  0  0  0  0
  6 18  2  0  0  0  0
  7 10  1  0  0  0  0
  7 12  1  0  0  0  0
  7 15  1  0  0  0  0
  8 11  1  0  0  0  0
  8 13  1  0  0  0  0
  8 18  1  0  0  0  0
  9 14  1  0  0  0  0
  9 17  1  0  0  0  0
  9 43  1  0  0  0  0
 10 11  1  0  0  0  0
 10 14  1  0  0  0  0
 10 36  1  0  0  0  0
 11 37  1  0  0  0  0
 11 38  1  0  0  0  0
 12 13  1  0  0  0  0
 12 39  1  0  0  0  0
 12 40  1  0  0  0  0
 13 41  1  0  0  0  0
 13 42  1  0  0  0  0
 15 16  1  0  0  0  0
 16 17  2  0  0  0  0
 16 19  1  0  0  0  0
 17 20  1  0  0  0  0
 18 22  1  0  0  0  0
 19 21  2  0  0  0  0
 19 44  1  0  0  0  0
 20 23  2  0  0  0  0
 20 45  1  0  0  0  0
 21 23  1  0  0  0  0
 21 24  1  0  0  0  0
 22 25  2  0  0  0  0
 22 26  1  0  0  0  0
 23 46  1  0  0  0  0
 24 27  2  0  0  0  0
 24 28  1  0  0  0  0
 25 29  1  0  0  0  0
 25 47  1  0  0  0  0
 26 30  2  0  0  0  0
 26 48  1  0  0  0  0
 27 31  1  0  0  0  0
 27 49  1  0  0  0  0
 28 33  2  0  0  0  0
 28 50  1  0  0  0  0
 29 32  2  0  0  0  0
 29 51  1  0  0  0  0
 30 32  1  0  0  0  0
 30 52  1  0  0  0  0
 31 34  2  0  0  0  0
 31 35  1  0  0  0  0
 32 53  1  0  0  0  0
 33 34  1  0  0  0  0
 33 54  1  0  0  0  0
 34 55  1  0  0  0  0
M  END
> <PUBCHEM_COMPOUND_CID>
7142422

> <PUBCHEM_CONFORMER_RMSD>
0.8

> <PUBCHEM_CONFORMER_DIVERSEORDER>
1
10
15
8
17
14
6
19
12
4
5
3
16
9
7
20
11
13
18
2

> <PUBCHEM_MMFF94_PARTIAL_CHARGES>
46
1 -0.34
10 0.36
11 0.3
12 0.3
13 0.3
14 0.57
15 0.54
16 0.09
17 0.12
18 0.54
19 -0.15
2 -0.34
20 -0.15
22 0.09
23 -0.15
25 -0.15
26 -0.15
27 -0.15
28 -0.15
29 -0.15
3 -0.34
30 -0.15
31 -0.14
32 -0.15
33 -0.15
34 -0.15
35 1.16
4 -0.57
43 0.37
44 0.15
45 0.15
46 0.15
47 0.15
48 0.15
49 0.15
5 -0.57
50 0.15
51 0.15
52 0.15
53 0.15
54 0.15
55 0.15
6 -0.57
7 -0.66
8 -0.66
9 -0.55

> <PUBCHEM_EFFECTIVE_ROTOR_COUNT>
5

> <PUBCHEM_PHARMACOPHORE_FEATURES>
9
1 4 acceptor
1 5 acceptor
1 6 acceptor
1 9 donor
6 16 17 19 20 21 23 rings
6 22 25 26 29 30 32 rings
6 24 27 28 31 33 34 rings
6 7 8 10 11 12 13 rings
7 7 9 10 14 15 16 17 rings

> <PUBCHEM_HEAVY_ATOM_COUNT>
35

> <PUBCHEM_ATOM_DEF_STEREO_COUNT>
1

> <PUBCHEM_ATOM_UDEF_STEREO_COUNT>
0

> <PUBCHEM_BOND_DEF_STEREO_COUNT>
0

> <PUBCHEM_BOND_UDEF_STEREO_COUNT>
0

> <PUBCHEM_ISOTOPIC_ATOM_COUNT>
0

> <PUBCHEM_COMPONENT_COUNT>
1

> <PUBCHEM_CACTVS_TAUTO_COUNT>
3

> <PUBCHEM_CONFORMER_ID>
006CFC1600000001

> <PUBCHEM_MMFF94_ENERGY>
122.7339

> <PUBCHEM_FEATURE_SELFOVERLAP>
45.702

> <PUBCHEM_SHAPE_FINGERPRINT>
10 15 17822007618790928899
10190206 1 17775577424519554080
10391435 84 11674873399304727315
10674148 151 18410291428892716450
10906281 52 18040157340155223890
10951579 204 18198361588440666940
11181472 205 18272378520957439528
11315181 36 18114178675272106951
11991303 11 15697426853499892893
12133447 93 18411428293265874012
13383665 225 18261971686751023076
13627175 23 17676496068080330732
14251764 18 18113613516866745103
14294032 229 18260824865267534877
14394314 77 18411141303831333625
14849402 71 18260829336486809973
15183329 4 18186797006448054646
15276724 80 17749099002827027364
15439362 3 18270686351230517407
15461852 350 17988639748900748711
1577012 14 18334290963691106731
16728433 281 17845666845288801705
1754908 1 12252180783972553844
17852330 134 15194181327008565849
19302320 297 18259994768886781285
21298829 104 18409168805249478237
21585482 111 18263361404808465117
22002106 203 11531065009766185833
22149856 69 13551464796822943190
23522609 53 17894922862153230164
23559900 14 18198902711870663112
23576562 1 18123183769117082773
24771293 8 18334575746035358725
25025965 108 11458720447520427009
2747138 104 13262671509536448762
3178227 256 15357699695352841004
335352 9 18261671583588786079
3711267 37 17675928720249437764
4017518 198 18131074865777066182
4073 2 18260550026501021883
4093350 32 17775284924552100966
4144715 1 18049442848990055680
4169191 19 18333444340254632125
4353968 344 12535083987685329960
445580 37 18273497883697048473
44802255 64 17203890782306535055
4516262 110 18189326893717302223
5028188 123 18339084899698956318
5265222 85 18198341956461186494
5758199 1 18113898273193221258
6086070 43 17418086633264506355
6328613 192 18261955257836411716
9962374 69 12901844856190381595
9980921 7 18187922843450179677

> <PUBCHEM_SHAPE_MULTIPOLES>
665.91
26.52
2.88
1.27
6.98
0.19
0.36
17.22
-2.86
-4.56
0.27
1.66
0.28
-1.94

> <PUBCHEM_SHAPE_SELFOVERLAP>
1481.547

> <PUBCHEM_SHAPE_VOLUME>
352.6

> <PUBCHEM_COORDINATE_TYPE>
2
5
10

$$$$
