40777250
  -OEChem-12032416173D

 62 66  0     1  0  0  0  0  0999 V2000
   -9.1793   -1.9246    2.2663 F   0  0  0  0  0  0  0  0  0  0  0  0
    3.9724    1.3941    1.7468 O   0  0  0  0  0  0  0  0  0  0  0  0
   -0.2002    2.9548    0.7318 N   0  0  2  0  0  0  0  0  0  0  0  0
    2.2965    0.1448    0.7555 N   0  0  0  0  0  0  0  0  0  0  0  0
   -2.2908   -0.0665   -1.9743 N   0  0  0  0  0  0  0  0  0  0  0  0
   -4.1432   -1.5125   -1.4398 N   0  0  0  0  0  0  0  0  0  0  0  0
    4.4925   -0.5034    0.4664 N   0  0  0  0  0  0  0  0  0  0  0  0
    9.2776   -3.5083   -1.2784 N   0  0  0  0  0  0  0  0  0  0  0  0
   -0.6913    2.3009   -1.7410 C   0  0  2  0  0  0  0  0  0  0  0  0
   -1.9531    2.0846   -0.8604 C   0  0  2  0  0  0  0  0  0  0  0  0
    0.8610    2.0445    0.2263 C   0  0  2  0  0  0  0  0  0  0  0  0
    0.4818    1.4830   -1.1609 C   0  0  0  0  0  0  0  0  0  0  0  0
   -0.3108    3.7918   -1.6151 C   0  0  0  0  0  0  0  0  0  0  0  0
   -1.5274    2.2998    0.6201 C   0  0  0  0  0  0  0  0  0  0  0  0
   -0.2076    4.1643   -0.1257 C   0  0  0  0  0  0  0  0  0  0  0  0
    1.1953    0.9304    1.2205 C   0  0  0  0  0  0  0  0  0  0  0  0
   -2.7514    0.8030   -1.0512 C   0  0  0  0  0  0  0  0  0  0  0  0
   -3.8848    0.5883   -0.2938 C   0  0  0  0  0  0  0  0  0  0  0  0
   -4.5471   -0.5986   -0.5332 C   0  0  0  0  0  0  0  0  0  0  0  0
   -3.0243   -1.1872   -2.1150 C   0  0  0  0  0  0  0  0  0  0  0  0
    3.6398    0.4343    1.0555 C   0  0  0  0  0  0  0  0  0  0  0  0
   -5.7469   -0.9420    0.1920 C   0  0  0  0  0  0  0  0  0  0  0  0
   -2.5476   -2.1724   -3.1279 C   0  0  0  0  0  0  0  0  0  0  0  0
   -5.7126   -1.0589    1.5815 C   0  0  0  0  0  0  0  0  0  0  0  0
   -6.9406   -1.1571   -0.4968 C   0  0  0  0  0  0  0  0  0  0  0  0
    5.9043   -0.5557    0.5338 C   0  0  0  0  0  0  0  0  0  0  0  0
   -6.8721   -1.3908    2.2824 C   0  0  0  0  0  0  0  0  0  0  0  0
   -8.1001   -1.4888    0.2039 C   0  0  0  0  0  0  0  0  0  0  0  0
   -8.0658   -1.6058    1.5935 C   0  0  0  0  0  0  0  0  0  0  0  0
    6.5974   -1.5721   -0.1236 C   0  0  0  0  0  0  0  0  0  0  0  0
    6.6035    0.4100    1.2577 C   0  0  0  0  0  0  0  0  0  0  0  0
    7.9897   -1.6227   -0.0572 C   0  0  0  0  0  0  0  0  0  0  0  0
    7.9959    0.3593    1.3243 C   0  0  0  0  0  0  0  0  0  0  0  0
    8.6892   -0.6571    0.6669 C   0  0  0  0  0  0  0  0  0  0  0  0
    8.7003   -2.6633   -0.7311 C   0  0  0  0  0  0  0  0  0  0  0  0
   -0.8716    2.0398   -2.7891 H   0  0  0  0  0  0  0  0  0  0  0  0
   -2.6572    2.8881   -1.1270 H   0  0  0  0  0  0  0  0  0  0  0  0
    1.7799    2.6386    0.1103 H   0  0  0  0  0  0  0  0  0  0  0  0
    0.2059    0.4240   -1.1083 H   0  0  0  0  0  0  0  0  0  0  0  0
    1.3470    1.5548   -1.8318 H   0  0  0  0  0  0  0  0  0  0  0  0
   -1.0627    4.4215   -2.1049 H   0  0  0  0  0  0  0  0  0  0  0  0
    0.6457    3.9763   -2.1190 H   0  0  0  0  0  0  0  0  0  0  0  0
   -2.2750    2.9292    1.1214 H   0  0  0  0  0  0  0  0  0  0  0  0
   -1.5272    1.3607    1.1854 H   0  0  0  0  0  0  0  0  0  0  0  0
    0.7013    4.7532    0.0490 H   0  0  0  0  0  0  0  0  0  0  0  0
   -1.0408    4.8183    0.1615 H   0  0  0  0  0  0  0  0  0  0  0  0
    0.3565    0.2416    1.3623 H   0  0  0  0  0  0  0  0  0  0  0  0
    1.4473    1.3566    2.1984 H   0  0  0  0  0  0  0  0  0  0  0  0
    2.0977   -0.6631    0.1735 H   0  0  0  0  0  0  0  0  0  0  0  0
   -4.2356    1.3122    0.4323 H   0  0  0  0  0  0  0  0  0  0  0  0
   -3.0414   -1.9851   -4.0859 H   0  0  0  0  0  0  0  0  0  0  0  0
   -1.4652   -2.0929   -3.2700 H   0  0  0  0  0  0  0  0  0  0  0  0
   -2.7737   -3.1949   -2.8098 H   0  0  0  0  0  0  0  0  0  0  0  0
    4.0524   -1.2403   -0.0789 H   0  0  0  0  0  0  0  0  0  0  0  0
   -4.7913   -0.9008    2.1373 H   0  0  0  0  0  0  0  0  0  0  0  0
   -6.9879   -1.0671   -1.5795 H   0  0  0  0  0  0  0  0  0  0  0  0
   -6.8457   -1.4831    3.3641 H   0  0  0  0  0  0  0  0  0  0  0  0
   -9.0299   -1.6555   -0.3318 H   0  0  0  0  0  0  0  0  0  0  0  0
    6.0499   -2.3245   -0.6881 H   0  0  0  0  0  0  0  0  0  0  0  0
    6.1391    1.2262    1.7925 H   0  0  0  0  0  0  0  0  0  0  0  0
    8.5416    1.1107    1.8878 H   0  0  0  0  0  0  0  0  0  0  0  0
    9.7745   -0.6831    0.7280 H   0  0  0  0  0  0  0  0  0  0  0  0
  1 29  1  0  0  0  0
  2 21  2  0  0  0  0
  3 11  1  0  0  0  0
  3 14  1  0  0  0  0
  3 15  1  0  0  0  0
  4 16  1  0  0  0  0
  4 21  1  0  0  0  0
  4 49  1  0  0  0  0
  5 17  2  0  0  0  0
  5 20  1  0  0  0  0
  6 19  1  0  0  0  0
  6 20  2  0  0  0  0
  7 21  1  0  0  0  0
  7 26  1  0  0  0  0
  7 54  1  0  0  0  0
  8 35  3  0  0  0  0
  9 10  1  0  0  0  0
  9 12  1  0  0  0  0
  9 13  1  0  0  0  0
  9 36  1  0  0  0  0
 10 14  1  0  0  0  0
 10 17  1  0  0  0  0
 10 37  1  0  0  0  0
 11 12  1  0  0  0  0
 11 16  1  0  0  0  0
 11 38  1  0  0  0  0
 12 39  1  0  0  0  0
 12 40  1  0  0  0  0
 13 15  1  0  0  0  0
 13 41  1  0  0  0  0
 13 42  1  0  0  0  0
 14 43  1  0  0  0  0
 14 44  1  0  0  0  0
 15 45  1  0  0  0  0
 15 46  1  0  0  0  0
 16 47  1  0  0  0  0
 16 48  1  0  0  0  0
 17 18  1  0  0  0  0
 18 19  2  0  0  0  0
 18 50  1  0  0  0  0
 19 22  1  0  0  0  0
 20 23  1  0  0  0  0
 22 24  2  0  0  0  0
 22 25  1  0  0  0  0
 23 51  1  0  0  0  0
 23 52  1  0  0  0  0
 23 53  1  0  0  0  0
 24 27  1  0  0  0  0
 24 55  1  0  0  0  0
 25 28  2  0  0  0  0
 25 56  1  0  0  0  0
 26 30  1  0  0  0  0
 26 31  2  0  0  0  0
 27 29  2  0  0  0  0
 27 57  1  0  0  0  0
 28 29  1  0  0  0  0
 28 58  1  0  0  0  0
 30 32  2  0  0  0  0
 30 59  1  0  0  0  0
 31 33  1  0  0  0  0
 31 60  1  0  0  0  0
 32 34  1  0  0  0  0
 32 35  1  0  0  0  0
 33 34  2  0  0  0  0
 33 61  1  0  0  0  0
 34 62  1  0  0  0  0
M  END
> <PUBCHEM_COMPOUND_CID>
40777250

> <PUBCHEM_CONFORMER_RMSD>
1.2

> <PUBCHEM_CONFORMER_DIVERSEORDER>
1
90
104
74
21
212
97
80
172
126
183
174
53
164
60
32
196
61
76
209
66
83
36
142
109
73
161
202
43
64
208
95
93
136
197
96
222
110
44
215
77
72
28
153
46
18
87
186
151
16
51
17
204
132
190
118
159
195
65
71
117
78
30
129
116
167
100
106
98
75
181
2
41
141
176
169
113
40
33
59
89
48
49
213
143
221
112
34
29
178
175
139
92
62
56
70
184
150
88
146
23
54
180
14
205
84
57
24
22
173
102
31
171
189
128
5
69
58
7
145
198
155
122
82
200
206
177
211
157
217
86
179
39
138
223
101
203
147
191
124
156
25
6
218
38
52
42
214
210
193
94
55
26
160
166
130
103
79
182
140
220
85
154
47
68
199
144
149
9
19
67
187
63
127
37
114
158
192
20
45
111
135
125
216
162
152
121
50
35
105
165
168
194
133
27
15
163
3
120
134
99
201
119
10
4
12
131
207
137
11
91
170
188
148
81
185
107
108
13
219
123
8
115

> <PUBCHEM_MMFF94_PARTIAL_CHARGES>
42
1 -0.19
10 0.14
11 0.27
14 0.27
15 0.27
16 0.3
17 0.17
18 -0.15
19 0.31
2 -0.57
20 0.48
21 0.69
23 0.14
24 -0.15
25 -0.15
26 0.12
27 -0.15
28 -0.15
29 0.19
3 -0.81
30 -0.15
31 -0.15
32 0.07
33 -0.15
34 -0.15
35 0.48
4 -0.73
49 0.37
5 -0.62
50 0.15
54 0.37
55 0.15
56 0.15
57 0.15
58 0.15
59 0.15
6 -0.62
60 0.15
61 0.15
62 0.15
7 -0.55
8 -0.56

> <PUBCHEM_EFFECTIVE_ROTOR_COUNT>
8.2

> <PUBCHEM_PHARMACOPHORE_FEATURES>
11
1 2 acceptor
1 3 cation
1 4 donor
1 5 acceptor
1 7 donor
1 8 acceptor
3 5 6 20 cation
6 22 24 25 27 28 29 rings
6 26 30 31 32 33 34 rings
6 5 6 17 18 19 20 rings
8 3 9 10 11 12 13 14 15 rings

> <PUBCHEM_HEAVY_ATOM_COUNT>
35

> <PUBCHEM_ATOM_DEF_STEREO_COUNT>
3

> <PUBCHEM_ATOM_UDEF_STEREO_COUNT>
0

> <PUBCHEM_BOND_DEF_STEREO_COUNT>
0

> <PUBCHEM_BOND_UDEF_STEREO_COUNT>
0

> <PUBCHEM_ISOTOPIC_ATOM_COUNT>
0

> <PUBCHEM_COMPONENT_COUNT>
1

> <PUBCHEM_CACTVS_TAUTO_COUNT>
3

> <PUBCHEM_CONFORMER_ID>
026E362200000001

> <PUBCHEM_MMFF94_ENERGY>
97.3728

> <PUBCHEM_FEATURE_SELFOVERLAP>
55.871

> <PUBCHEM_SHAPE_FINGERPRINT>
10076449 9 17167583804292215609
10190108 129 18413671301450542510
10280341 67 13326311230152922491
11211813 15 8430311333838829267
11374522 101 11095585846099777874
11387372 6 18342735247611258039
11476731 47 17677336164322368932
11478447 183 14346067660331183891
11621639 254 13406796601954563647
12013929 27 18264492777046780286
13673619 4 18413101762827411312
13782708 43 18269260293776328608
14040221 275 17773055067763047025
14040221 304 10665219376562593467
14705955 166 15984835809241095041
15350500 185 10159700187560540146
15350500 55 13038916512443420827
15510800 12 18260270758540772170
15538507 75 15338570340640294198
15684393 108 18333736832255246902
16067689 302 18260552273148485124
16991971 28 17967818262191506024
17852330 162 12974471992497684818
18335252 98 18342171177567625400
19246450 95 17775012246148129241
195137 95 13182746926754761083
208703 8 18113617880922867876
21033648 29 14333138515262316221
21344244 246 17313674866446062100
21716022 299 17677063450145265812
21927370 108 18335145267067709609
23522609 53 15553306194517040032
25269216 80 18187653462493920150
2747138 104 18334292068120271944
335507 130 18412820310042636820
3918712 181 8790884069293338438
393628 179 9727634981666334722
397638 26 12319732570759156890
4461854 278 18272373100509012286
44880168 125 17845919797714370062
4756326 101 11023829435804854523
5372103 7 10303820860874187787
54039377 194 18335141990265657910
5470011 282 17385722504712321750
54728670 133 16271369574089562377
57527293 21 17560231556781019076
5776283 40 14490196045859786849
6009941 240 18041268873691776285
6691757 9 16845567643848823597
9896288 288 18199188378361512721
999808 66 18412261735500275787

> <PUBCHEM_SHAPE_MULTIPOLES>
677.25
29.2
3.83
2.23
31.5
2.96
-0.65
-35.45
11.52
1.37
-1.36
-3.03
-0.94
3.77

> <PUBCHEM_SHAPE_SELFOVERLAP>
1476.64

> <PUBCHEM_SHAPE_VOLUME>
366.7

> <PUBCHEM_COORDINATE_TYPE>
2
5
10

$$$$
