28960538
  -OEChem-12032416293D

 54 57  0     1  0  0  0  0  0999 V2000
    1.9443   -1.9914    1.6136 O   0  0  0  0  0  0  0  0  0  0  0  0
    3.1131   -3.4333    0.2223 O   0  0  0  0  0  0  0  0  0  0  0  0
    1.3735   -2.9824   -2.0298 O   0  0  0  0  0  0  0  0  0  0  0  0
    1.9146    4.5704    1.1519 O   0  0  0  0  0  0  0  0  0  0  0  0
   -2.4280   -1.9253   -0.9861 O   0  0  0  0  0  0  0  0  0  0  0  0
    2.2059    0.1182   -0.3170 N   0  0  0  0  0  0  0  0  0  0  0  0
   -0.7189   -1.4543    0.4970 N   0  0  0  0  0  0  0  0  0  0  0  0
    3.0215    5.3140   -0.7231 N   0  0  0  0  0  0  0  0  0  0  0  0
   -2.6405   -0.2097    0.6020 N   0  0  0  0  0  0  0  0  0  0  0  0
    2.3956   -1.2948   -0.6506 C   0  0  2  0  0  0  0  0  0  0  0  0
    1.0617   -1.9127   -1.1275 C   0  0  2  0  0  0  0  0  0  0  0  0
    0.1962   -2.4706    0.0236 C   0  0  1  0  0  0  0  0  0  0  0  0
    2.9337   -2.0523    0.5772 C   0  0  1  0  0  0  0  0  0  0  0  0
    1.0301   -3.0128    1.2027 C   0  0  1  0  0  0  0  0  0  0  0  0
    2.0004   -4.1149    0.8215 C   0  0  0  0  0  0  0  0  0  0  0  0
    3.2964    0.5934    0.5457 C   0  0  0  0  0  0  0  0  0  0  0  0
    2.1068    0.9263   -1.5403 C   0  0  0  0  0  0  0  0  0  0  0  0
    3.0835    2.0537    0.9486 C   0  0  0  0  0  0  0  0  0  0  0  0
    1.8541    2.3983   -1.2101 C   0  0  0  0  0  0  0  0  0  0  0  0
    2.9318    2.9503   -0.2787 C   0  0  0  0  0  0  0  0  0  0  0  0
    2.5701    4.3421    0.1382 C   0  0  0  0  0  0  0  0  0  0  0  0
   -1.9865   -1.2555   -0.0554 C   0  0  0  0  0  0  0  0  0  0  0  0
   -3.9341    0.3020    0.3467 C   0  0  0  0  0  0  0  0  0  0  0  0
   -4.4279    1.3603    1.1096 C   0  0  0  0  0  0  0  0  0  0  0  0
   -4.7162   -0.2511   -0.6672 C   0  0  0  0  0  0  0  0  0  0  0  0
   -5.7037    1.8654    0.8587 C   0  0  0  0  0  0  0  0  0  0  0  0
   -5.9919    0.2542   -0.9184 C   0  0  0  0  0  0  0  0  0  0  0  0
   -6.4856    1.3124   -0.1553 C   0  0  0  0  0  0  0  0  0  0  0  0
    3.1458   -1.4056   -1.4473 H   0  0  0  0  0  0  0  0  0  0  0  0
    0.4726   -1.2158   -1.7299 H   0  0  0  0  0  0  0  0  0  0  0  0
   -0.4136   -3.3008   -0.3558 H   0  0  0  0  0  0  0  0  0  0  0  0
    3.9092   -1.7212    0.9413 H   0  0  0  0  0  0  0  0  0  0  0  0
    0.3870   -3.3025    2.0402 H   0  0  0  0  0  0  0  0  0  0  0  0
    2.3806   -4.6270    1.7121 H   0  0  0  0  0  0  0  0  0  0  0  0
    1.5866   -4.8573    0.1340 H   0  0  0  0  0  0  0  0  0  0  0  0
    4.2732    0.4836    0.0568 H   0  0  0  0  0  0  0  0  0  0  0  0
    3.3285    0.0845    1.5130 H   0  0  0  0  0  0  0  0  0  0  0  0
    1.2833    0.5989   -2.1815 H   0  0  0  0  0  0  0  0  0  0  0  0
    3.0261    0.8435   -2.1357 H   0  0  0  0  0  0  0  0  0  0  0  0
    2.1925    2.1171    1.5882 H   0  0  0  0  0  0  0  0  0  0  0  0
    3.9280    2.3959    1.5598 H   0  0  0  0  0  0  0  0  0  0  0  0
    1.8249    2.9805   -2.1394 H   0  0  0  0  0  0  0  0  0  0  0  0
    0.8627    2.5049   -0.7489 H   0  0  0  0  0  0  0  0  0  0  0  0
    3.8916    2.9719   -0.8121 H   0  0  0  0  0  0  0  0  0  0  0  0
   -0.3936   -0.8085    1.2100 H   0  0  0  0  0  0  0  0  0  0  0  0
    0.5336   -3.3317   -2.3734 H   0  0  0  0  0  0  0  0  0  0  0  0
    3.5508    5.0967   -1.5615 H   0  0  0  0  0  0  0  0  0  0  0  0
    2.8326    6.2952   -0.5466 H   0  0  0  0  0  0  0  0  0  0  0  0
   -2.1319    0.2438    1.3568 H   0  0  0  0  0  0  0  0  0  0  0  0
   -3.8289    1.8005    1.9028 H   0  0  0  0  0  0  0  0  0  0  0  0
   -4.4042   -1.0704   -1.2992 H   0  0  0  0  0  0  0  0  0  0  0  0
   -6.0882    2.6894    1.4527 H   0  0  0  0  0  0  0  0  0  0  0  0
   -6.6019   -0.1755   -1.7077 H   0  0  0  0  0  0  0  0  0  0  0  0
   -7.4788    1.7057   -0.3508 H   0  0  0  0  0  0  0  0  0  0  0  0
  1 13  1  0  0  0  0
  1 14  1  0  0  0  0
  2 13  1  0  0  0  0
  2 15  1  0  0  0  0
  3 11  1  0  0  0  0
  3 46  1  0  0  0  0
  4 21  2  0  0  0  0
  5 22  2  0  0  0  0
  6 10  1  0  0  0  0
  6 16  1  0  0  0  0
  6 17  1  0  0  0  0
  7 12  1  0  0  0  0
  7 22  1  0  0  0  0
  7 45  1  0  0  0  0
  8 21  1  0  0  0  0
  8 47  1  0  0  0  0
  8 48  1  0  0  0  0
  9 22  1  0  0  0  0
  9 23  1  0  0  0  0
  9 49  1  0  0  0  0
 10 11  1  0  0  0  0
 10 13  1  0  0  0  0
 10 29  1  0  0  0  0
 11 12  1  0  0  0  0
 11 30  1  0  0  0  0
 12 14  1  0  0  0  0
 12 31  1  0  0  0  0
 13 32  1  0  0  0  0
 14 15  1  0  0  0  0
 14 33  1  0  0  0  0
 15 34  1  0  0  0  0
 15 35  1  0  0  0  0
 16 18  1  0  0  0  0
 16 36  1  0  0  0  0
 16 37  1  0  0  0  0
 17 19  1  0  0  0  0
 17 38  1  0  0  0  0
 17 39  1  0  0  0  0
 18 20  1  0  0  0  0
 18 40  1  0  0  0  0
 18 41  1  0  0  0  0
 19 20  1  0  0  0  0
 19 42  1  0  0  0  0
 19 43  1  0  0  0  0
 20 21  1  0  0  0  0
 20 44  1  0  0  0  0
 23 24  2  0  0  0  0
 23 25  1  0  0  0  0
 24 26  1  0  0  0  0
 24 50  1  0  0  0  0
 25 27  2  0  0  0  0
 25 51  1  0  0  0  0
 26 28  2  0  0  0  0
 26 52  1  0  0  0  0
 27 28  1  0  0  0  0
 27 53  1  0  0  0  0
 28 54  1  0  0  0  0
M  END
> <PUBCHEM_COMPOUND_CID>
28960538

> <PUBCHEM_CONFORMER_RMSD>
1

> <PUBCHEM_CONFORMER_DIVERSEORDER>
1
30
36
9
40
13
39
14
8
32
7
24
4
27
20
38
34
21
25
37
26
12
29
6
5
3
15
23
31
28
22
18
16
33
10
35
19
2
11
17

> <PUBCHEM_MMFF94_PARTIAL_CHARGES>
36
1 -0.56
10 0.27
11 0.28
12 0.3
13 0.56
14 0.28
15 0.28
16 0.27
17 0.27
2 -0.56
20 0.06
21 0.57
22 0.69
23 0.12
24 -0.15
25 -0.15
26 -0.15
27 -0.15
28 -0.15
3 -0.68
4 -0.57
45 0.37
46 0.4
47 0.37
48 0.37
49 0.37
5 -0.57
50 0.15
51 0.15
52 0.15
53 0.15
54 0.15
6 -0.81
7 -0.73
8 -0.8
9 -0.55

> <PUBCHEM_EFFECTIVE_ROTOR_COUNT>
8.4

> <PUBCHEM_PHARMACOPHORE_FEATURES>
13
1 1 acceptor
1 2 acceptor
1 3 acceptor
1 3 donor
1 4 acceptor
1 5 acceptor
1 6 cation
1 7 donor
1 8 donor
1 9 donor
6 23 24 25 26 27 28 rings
6 6 16 17 18 19 20 rings
8 1 2 10 11 12 13 14 15 rings

> <PUBCHEM_HEAVY_ATOM_COUNT>
28

> <PUBCHEM_ATOM_DEF_STEREO_COUNT>
5

> <PUBCHEM_ATOM_UDEF_STEREO_COUNT>
0

> <PUBCHEM_BOND_DEF_STEREO_COUNT>
0

> <PUBCHEM_BOND_UDEF_STEREO_COUNT>
0

> <PUBCHEM_ISOTOPIC_ATOM_COUNT>
0

> <PUBCHEM_COMPONENT_COUNT>
1

> <PUBCHEM_CACTVS_TAUTO_COUNT>
6

> <PUBCHEM_CONFORMER_ID>
01B9E71A00000001

> <PUBCHEM_MMFF94_ENERGY>
79.5572

> <PUBCHEM_FEATURE_SELFOVERLAP>
66.075

> <PUBCHEM_SHAPE_FINGERPRINT>
10439779 11 18339635651133380296
10675989 125 18342462573197143025
10937287 8 18121499317240292248
11059845 2 17762314205297632560
12107183 9 17974269209436036160
12166972 35 18199464364459319523
13583140 156 18187092707100690107
13590594 115 18050009891646402746
13761468 95 16971715930742222228
13878862 14 18115287987857017325
13944108 23 18336838476256833141
13965767 371 17896023516004936276
14251764 75 18267314316476822681
14848178 96 18339644554869648609
14849402 71 18408041818837196570
15142526 21 18262516030336431203
15420108 30 18198885050865558170
15475509 84 17686329872535595770
17844677 252 18265340517485305851
17980427 23 18198598043506662098
18681886 176 18270676455177474243
21133410 221 15975237389958181457
21344244 78 17901086539154308906
21591340 35 18341057396940855425
21860390 5 18270686363502833583
22122407 14 18193853548581847233
23559900 14 17845377648477668791
245318 6 18117284855254829413
345986 75 17319005036165073562
376196 1 18196658607973727670
4058900 60 18264220277396585768
44317340 157 18408321061253846213
474 4 18335982042908643315
513532 50 17917998235201581694
57124632 79 18337105778041439441
5895379 119 17487629515539818553
5939293 188 18411139095848332526
6201320 215 16537930092156000572
67856867 119 18411975841772363759
9849439 229 18046069521420121701
9981440 41 18048592917479229763

> <PUBCHEM_SHAPE_MULTIPOLES>
526.96
11.12
6.34
1.37
26.16
5.34
0.21
6.34
-0.35
-10.37
-0.68
-0.37
-0.28
-1.09

> <PUBCHEM_SHAPE_SELFOVERLAP>
1127.221

> <PUBCHEM_SHAPE_VOLUME>
286.7

> <PUBCHEM_COORDINATE_TYPE>
2
5
10

$$$$
