11885937
  -OEChem-12032416153D

 56 60  0     1  0  0  0  0  0999 V2000
   -2.5930    1.4226    0.9618 O   0  0  0  0  0  0  0  0  0  0  0  0
   -3.2679    3.0718   -1.5338 O   0  0  0  0  0  0  0  0  0  0  0  0
   -0.1290    2.2418   -0.0201 O   0  0  0  0  0  0  0  0  0  0  0  0
   -7.3263    0.8654    0.5285 O   0  0  0  0  0  0  0  0  0  0  0  0
    0.9687    0.5445   -1.0897 O   0  0  0  0  0  0  0  0  0  0  0  0
    6.7913   -0.9193    1.4606 O   0  0  0  0  0  0  0  0  0  0  0  0
   -5.2289    0.2525   -0.2487 N   0  0  0  0  0  0  0  0  0  0  0  0
    1.8987    1.6365    0.7603 N   0  0  0  0  0  0  0  0  0  0  0  0
   -6.0677   -2.3098   -0.3374 N   0  0  0  0  0  0  0  0  0  0  0  0
   -8.6698   -3.0620    0.3902 N   0  0  0  0  0  0  0  0  0  0  0  0
   -3.5069    1.6861   -1.2103 C   0  0  1  0  0  0  0  0  0  0  0  0
   -2.3018    1.2033   -0.4286 C   0  0  1  0  0  0  0  0  0  0  0  0
   -4.6471    1.5724   -0.2255 C   0  0  2  0  0  0  0  0  0  0  0  0
   -1.2055    2.1169   -0.9215 C   0  0  1  0  0  0  0  0  0  0  0  0
   -3.9572    1.8490    1.0992 C   0  0  0  0  0  0  0  0  0  0  0  0
   -1.9415    3.4238   -1.1136 C   0  0  0  0  0  0  0  0  0  0  0  0
   -6.5396    0.0077    0.1362 C   0  0  0  0  0  0  0  0  0  0  0  0
    0.9364    1.3836   -0.1980 C   0  0  0  0  0  0  0  0  0  0  0  0
   -6.9801   -1.4100    0.0802 C   0  0  0  0  0  0  0  0  0  0  0  0
   -8.2583   -1.7794    0.4374 C   0  0  0  0  0  0  0  0  0  0  0  0
    3.1423    0.9882    0.9373 C   0  0  0  0  0  0  0  0  0  0  0  0
    3.9933    1.3819    1.9700 C   0  0  0  0  0  0  0  0  0  0  0  0
    3.5178   -0.0461    0.0802 C   0  0  0  0  0  0  0  0  0  0  0  0
   -6.4791   -3.5923   -0.3845 C   0  0  0  0  0  0  0  0  0  0  0  0
   -7.7572   -3.9618   -0.0272 C   0  0  0  0  0  0  0  0  0  0  0  0
    5.2200    0.7414    2.1455 C   0  0  0  0  0  0  0  0  0  0  0  0
    4.7444   -0.6867    0.2555 C   0  0  0  0  0  0  0  0  0  0  0  0
    5.5954   -0.2929    1.2881 C   0  0  0  0  0  0  0  0  0  0  0  0
    7.5640   -1.1527    0.3353 C   0  0  0  0  0  0  0  0  0  0  0  0
    7.7371   -0.1448   -0.6133 C   0  0  0  0  0  0  0  0  0  0  0  0
    8.1683   -2.3960    0.1498 C   0  0  0  0  0  0  0  0  0  0  0  0
    8.5146   -0.3803   -1.7473 C   0  0  0  0  0  0  0  0  0  0  0  0
    8.9459   -2.6316   -0.9841 C   0  0  0  0  0  0  0  0  0  0  0  0
    9.1189   -1.6236   -1.9326 C   0  0  0  0  0  0  0  0  0  0  0  0
   -3.6599    1.1468   -2.1506 H   0  0  0  0  0  0  0  0  0  0  0  0
   -2.0798    0.1400   -0.5581 H   0  0  0  0  0  0  0  0  0  0  0  0
   -5.4378    2.3093   -0.4029 H   0  0  0  0  0  0  0  0  0  0  0  0
   -0.8712    1.7831   -1.9136 H   0  0  0  0  0  0  0  0  0  0  0  0
   -3.9389    2.9233    1.3134 H   0  0  0  0  0  0  0  0  0  0  0  0
   -4.4117    1.3364    1.9526 H   0  0  0  0  0  0  0  0  0  0  0  0
   -2.0064    4.0050   -0.1869 H   0  0  0  0  0  0  0  0  0  0  0  0
   -1.4724    4.0583   -1.8716 H   0  0  0  0  0  0  0  0  0  0  0  0
   -4.6400   -0.5328   -0.5127 H   0  0  0  0  0  0  0  0  0  0  0  0
    1.6901    2.3803    1.4219 H   0  0  0  0  0  0  0  0  0  0  0  0
   -9.0047   -1.0699    0.7748 H   0  0  0  0  0  0  0  0  0  0  0  0
    3.7126    2.1863    2.6451 H   0  0  0  0  0  0  0  0  0  0  0  0
    2.9092   -0.4085   -0.7366 H   0  0  0  0  0  0  0  0  0  0  0  0
   -5.7464   -4.3159   -0.7198 H   0  0  0  0  0  0  0  0  0  0  0  0
   -8.0871   -4.9927   -0.0654 H   0  0  0  0  0  0  0  0  0  0  0  0
    5.8788    1.0523    2.9517 H   0  0  0  0  0  0  0  0  0  0  0  0
    5.0014   -1.5051   -0.4120 H   0  0  0  0  0  0  0  0  0  0  0  0
    7.2961    0.8398   -0.4834 H   0  0  0  0  0  0  0  0  0  0  0  0
    8.0363   -3.1848    0.8852 H   0  0  0  0  0  0  0  0  0  0  0  0
    8.6536    0.4060   -2.4836 H   0  0  0  0  0  0  0  0  0  0  0  0
    9.4165   -3.5996   -1.1284 H   0  0  0  0  0  0  0  0  0  0  0  0
    9.7252   -1.8065   -2.8150 H   0  0  0  0  0  0  0  0  0  0  0  0
  1 12  1  0  0  0  0
  1 15  1  0  0  0  0
  2 11  1  0  0  0  0
  2 16  1  0  0  0  0
  3 14  1  0  0  0  0
  3 18  1  0  0  0  0
  4 17  2  0  0  0  0
  5 18  2  0  0  0  0
  6 28  1  0  0  0  0
  6 29  1  0  0  0  0
  7 13  1  0  0  0  0
  7 17  1  0  0  0  0
  7 43  1  0  0  0  0
  8 18  1  0  0  0  0
  8 21  1  0  0  0  0
  8 44  1  0  0  0  0
  9 19  2  0  0  0  0
  9 24  1  0  0  0  0
 10 20  2  0  0  0  0
 10 25  1  0  0  0  0
 11 12  1  0  0  0  0
 11 13  1  0  0  0  0
 11 35  1  0  0  0  0
 12 14  1  0  0  0  0
 12 36  1  0  0  0  0
 13 15  1  0  0  0  0
 13 37  1  0  0  0  0
 14 16  1  0  0  0  0
 14 38  1  0  0  0  0
 15 39  1  0  0  0  0
 15 40  1  0  0  0  0
 16 41  1  0  0  0  0
 16 42  1  0  0  0  0
 17 19  1  0  0  0  0
 19 20  1  0  0  0  0
 20 45  1  0  0  0  0
 21 22  2  0  0  0  0
 21 23  1  0  0  0  0
 22 26  1  0  0  0  0
 22 46  1  0  0  0  0
 23 27  2  0  0  0  0
 23 47  1  0  0  0  0
 24 25  2  0  0  0  0
 24 48  1  0  0  0  0
 25 49  1  0  0  0  0
 26 28  2  0  0  0  0
 26 50  1  0  0  0  0
 27 28  1  0  0  0  0
 27 51  1  0  0  0  0
 29 30  2  0  0  0  0
 29 31  1  0  0  0  0
 30 32  1  0  0  0  0
 30 52  1  0  0  0  0
 31 33  2  0  0  0  0
 31 53  1  0  0  0  0
 32 34  2  0  0  0  0
 32 54  1  0  0  0  0
 33 34  1  0  0  0  0
 33 55  1  0  0  0  0
 34 56  1  0  0  0  0
M  END
> <PUBCHEM_COMPOUND_CID>
11885937

> <PUBCHEM_CONFORMER_RMSD>
1

> <PUBCHEM_CONFORMER_DIVERSEORDER>
1
90
24
74
114
86
117
69
55
79
35
17
88
123
53
99
18
66
122
4
65
37
121
30
115
84
77
36
23
76
108
60
49
70
97
107
38
68
102
111
103
22
80
95
100
73
72
87
118
33
120
109
57
44
54
31
16
104
119
75
41
98
5
3
12
52
51
10
116
19
82
105
15
113
110
63
25
40
93
56
106
48
39
92
46
21
28
78
58
42
32
64
8
34
101
45
2
26
20
91
43
11
89
85
59
71
94
96
81
7
6
62
61
124
13
67
14
29
9
47
112
27
50
83

> <PUBCHEM_MMFF94_PARTIAL_CHARGES>
48
1 -0.56
10 -0.62
11 0.28
12 0.28
13 0.3
14 0.28
15 0.28
16 0.28
17 0.54
18 0.78
19 0.4
2 -0.56
20 0.16
21 0.12
22 -0.15
23 -0.15
24 0.16
25 0.16
26 -0.15
27 -0.15
28 0.08
29 0.08
3 -0.43
30 -0.15
31 -0.15
32 -0.15
33 -0.15
34 -0.15
4 -0.57
43 0.37
44 0.37
45 0.15
46 0.15
47 0.15
48 0.15
49 0.15
5 -0.57
50 0.15
51 0.15
52 0.15
53 0.15
54 0.15
55 0.15
56 0.15
6 -0.17
7 -0.73
8 -0.55
9 -0.62

> <PUBCHEM_EFFECTIVE_ROTOR_COUNT>
10.2

> <PUBCHEM_PHARMACOPHORE_FEATURES>
14
1 1 acceptor
1 10 acceptor
1 2 acceptor
1 4 acceptor
1 5 acceptor
1 6 acceptor
1 7 donor
1 8 donor
1 9 acceptor
5 1 11 12 13 15 rings
5 2 11 12 14 16 rings
6 21 22 23 26 27 28 rings
6 29 30 31 32 33 34 rings
6 9 10 19 20 24 25 rings

> <PUBCHEM_HEAVY_ATOM_COUNT>
34

> <PUBCHEM_ATOM_DEF_STEREO_COUNT>
4

> <PUBCHEM_ATOM_UDEF_STEREO_COUNT>
0

> <PUBCHEM_BOND_DEF_STEREO_COUNT>
0

> <PUBCHEM_BOND_UDEF_STEREO_COUNT>
0

> <PUBCHEM_ISOTOPIC_ATOM_COUNT>
0

> <PUBCHEM_COMPONENT_COUNT>
1

> <PUBCHEM_CACTVS_TAUTO_COUNT>
4

> <PUBCHEM_CONFORMER_ID>
00B55D7100000001

> <PUBCHEM_MMFF94_ENERGY>
110.1118

> <PUBCHEM_FEATURE_SELFOVERLAP>
71.773

> <PUBCHEM_SHAPE_FINGERPRINT>
10162869 55 16153423927803195808
10190206 1 12829480438326423543
10258705 36 18272093760458231886
10280341 67 10375602473336077347
10533779 47 16415491428154925998
10952577 141 15576094492541976519
11475781 23 8862947208059978120
11497681 19 18333732450539720284
11607047 74 18191309497402403724
11621639 254 13912595027960057775
11621639 307 10015324377708774715
11761917 116 18334857234045163990
11761917 87 16845299302792712582
11963148 33 18188196624663480403
125118 31 10015567429796992650
12539745 222 18131072607082762225
12717326 120 18341058530944044982
13008946 119 9295291664666590581
14344974 204 18200025287151936223
14429380 56 15430045362117455974
14444916 359 17988644060610252614
14671636 106 18408885170041276746
14965480 1 18201730522603053022
15350500 55 7925912582357414410
15392192 29 17822024094850024665
15461852 350 18187086130766592950
1577012 14 16371570276611016308
16067689 68 18200888352962364923
16120349 21 18411136944560048329
16728433 281 12180105568153679503
16989713 51 18260260833493785053
16991971 28 18186523223821146068
16992779 147 16700033097214105304
16993089 31 18343861096020035028
16994733 274 9727635011830403572
1818759 1 18334018298072297355
18608769 82 18411418393255492902
195137 95 9295288327012172822
20105231 36 17846780677281027830
20609170 94 18191310580271537364
20982279 24 17274274842543785502
21424621 283 10519715514065161925
21585481 151 18413672405093068347
21772523 7 14490761238435646950
21774942 28 9583520927967298562
21781051 124 18272937120551997910
23389318 12 17312824896670140366
23729417 116 18113896035706243469
25242607 90 18337663239706820555
255183 451 18260266382259826116
2747138 104 18131626769100332256
2851757 41 18263085561024613419
3178227 256 17131830950738305628
406291 66 18262795289653699859
44802255 64 12685095887118840937
4516262 110 10591500373832914769
45377200 153 18411141346601567770
4625314 4 18409446985997511117
4760202 70 18041850631138169028
5028188 123 18409170983035793932
54039377 194 18260552234139792983
54076057 127 18059287769348742856
5718773 13 18261667177822355785
5937810 71 12035717688409271455
6058803 2 16229680418312699640
636775 8 18411422778812422790
9896288 288 18059297544303755729
9962374 69 18113338639113080636
999808 66 18059850662443598349

> <PUBCHEM_SHAPE_MULTIPOLES>
644.56
34.22
4.08
1.56
16.05
2.27
-0.14
38.51
3.8
-8.96
0.96
3.27
-0.55
2.81

> <PUBCHEM_SHAPE_SELFOVERLAP>
1412.937

> <PUBCHEM_SHAPE_VOLUME>
346.3

> <PUBCHEM_COORDINATE_TYPE>
2
5
10

$$$$
