11883092
  -OEChem-12032416313D

 70 74  0     1  0  0  0  0  0999 V2000
   -0.3226    3.1277   -0.0537 S   0  0  0  0  0  0  0  0  0  0  0  0
   -7.1524   -0.7146   -0.5190 O   0  0  0  0  0  0  0  0  0  0  0  0
   -7.1457    1.1998    0.9229 O   0  0  0  0  0  0  0  0  0  0  0  0
    0.7817   -1.9095   -1.4501 O   0  0  0  0  0  0  0  0  0  0  0  0
    3.6041    0.6700   -0.4162 O   0  0  0  0  0  0  0  0  0  0  0  0
    4.4241   -2.6580   -0.9861 O   0  0  0  0  0  0  0  0  0  0  0  0
    0.6642    0.7413   -0.2073 N   0  0  0  0  0  0  0  0  0  0  0  0
    2.2323    2.5712   -0.2503 N   0  0  0  0  0  0  0  0  0  0  0  0
    1.3459   -3.2527    0.3606 N   0  0  0  0  0  0  0  0  0  0  0  0
   -2.8902   -0.6270    0.3945 C   0  0  2  0  0  0  0  0  0  0  0  0
   -3.5760    0.6181   -0.3231 C   0  0  1  0  0  0  0  0  0  0  0  0
   -5.1515    0.6860   -0.2880 C   0  0  1  0  0  0  0  0  0  0  0  0
   -1.3839   -0.7294   -0.1288 C   0  0  1  0  0  0  0  0  0  0  0  0
   -3.6356   -1.9271   -0.0043 C   0  0  0  0  0  0  0  0  0  0  0  0
   -5.7329   -0.7058   -0.6665 C   0  0  1  0  0  0  0  0  0  0  0  0
   -2.8819    1.9545    0.0703 C   0  0  0  0  0  0  0  0  0  0  0  0
   -5.1469   -1.8462    0.1584 C   0  0  0  0  0  0  0  0  0  0  0  0
   -2.8919   -0.5069    1.9385 C   0  0  0  0  0  0  0  0  0  0  0  0
   -0.7092    0.6180   -0.1057 C   0  0  0  0  0  0  0  0  0  0  0  0
   -5.7416    1.1840    1.0499 C   0  0  0  0  0  0  0  0  0  0  0  0
   -5.6394    1.6987   -1.3625 C   0  0  0  0  0  0  0  0  0  0  0  0
   -1.4011    1.8100   -0.0342 C   0  0  0  0  0  0  0  0  0  0  0  0
   -0.5344   -1.7951    0.5768 C   0  0  0  0  0  0  0  0  0  0  0  0
    0.5862   -2.3000   -0.3024 C   0  0  0  0  0  0  0  0  0  0  0  0
    0.9813    2.0176   -0.1828 C   0  0  0  0  0  0  0  0  0  0  0  0
    4.6750    2.8429   -0.4061 C   0  0  0  0  0  0  0  0  0  0  0  0
    3.4595    1.8940   -0.3612 C   0  0  0  0  0  0  0  0  0  0  0  0
    6.0765    2.2057   -0.3058 C   0  0  0  0  0  0  0  0  0  0  0  0
    5.0192    3.6181    0.8829 C   0  0  0  0  0  0  0  0  0  0  0  0
    6.5032    3.4547    0.4933 C   0  0  0  0  0  0  0  0  0  0  0  0
    2.4839   -3.9117   -0.2384 C   0  0  0  0  0  0  0  0  0  0  0  0
    3.7314   -3.1442    0.0769 C   0  0  0  0  0  0  0  0  0  0  0  0
    4.3570   -2.8091    1.2553 C   0  0  0  0  0  0  0  0  0  0  0  0
    5.5080   -2.0695    0.8930 C   0  0  0  0  0  0  0  0  0  0  0  0
    5.5037   -2.0052   -0.4809 C   0  0  0  0  0  0  0  0  0  0  0  0
   -3.3392    0.4709   -1.3913 H   0  0  0  0  0  0  0  0  0  0  0  0
   -1.4573   -0.9928   -1.1947 H   0  0  0  0  0  0  0  0  0  0  0  0
   -3.4180   -2.1682   -1.0533 H   0  0  0  0  0  0  0  0  0  0  0  0
   -3.2771   -2.7785    0.5851 H   0  0  0  0  0  0  0  0  0  0  0  0
   -5.5256   -0.9017   -1.7270 H   0  0  0  0  0  0  0  0  0  0  0  0
   -3.1410    2.2437    1.0942 H   0  0  0  0  0  0  0  0  0  0  0  0
   -3.2124    2.7603   -0.5937 H   0  0  0  0  0  0  0  0  0  0  0  0
   -5.4297   -1.7480    1.2123 H   0  0  0  0  0  0  0  0  0  0  0  0
   -5.5940   -2.7945   -0.1668 H   0  0  0  0  0  0  0  0  0  0  0  0
   -2.3884   -1.3622    2.4028 H   0  0  0  0  0  0  0  0  0  0  0  0
   -3.8932   -0.5026    2.3640 H   0  0  0  0  0  0  0  0  0  0  0  0
   -2.3770    0.3912    2.2907 H   0  0  0  0  0  0  0  0  0  0  0  0
   -5.5033    0.5348    1.8886 H   0  0  0  0  0  0  0  0  0  0  0  0
   -5.4079    2.1981    1.2897 H   0  0  0  0  0  0  0  0  0  0  0  0
   -5.1873    1.4837   -2.3377 H   0  0  0  0  0  0  0  0  0  0  0  0
   -5.3817    2.7295   -1.0979 H   0  0  0  0  0  0  0  0  0  0  0  0
   -6.7253    1.6660   -1.5050 H   0  0  0  0  0  0  0  0  0  0  0  0
   -0.1025   -1.4065    1.5077 H   0  0  0  0  0  0  0  0  0  0  0  0
   -1.1356   -2.6737    0.8317 H   0  0  0  0  0  0  0  0  0  0  0  0
   -7.4737   -1.5851   -0.8100 H   0  0  0  0  0  0  0  0  0  0  0  0
   -7.5092    1.5235    1.7647 H   0  0  0  0  0  0  0  0  0  0  0  0
    2.2549    3.5871   -0.2146 H   0  0  0  0  0  0  0  0  0  0  0  0
    1.1104   -3.4967    1.3186 H   0  0  0  0  0  0  0  0  0  0  0  0
    4.6074    3.5128   -1.2774 H   0  0  0  0  0  0  0  0  0  0  0  0
    6.5993    2.0540   -1.2538 H   0  0  0  0  0  0  0  0  0  0  0  0
    6.1233    1.2795    0.2785 H   0  0  0  0  0  0  0  0  0  0  0  0
    4.7453    3.1010    1.8100 H   0  0  0  0  0  0  0  0  0  0  0  0
    4.6573    4.6486    0.9296 H   0  0  0  0  0  0  0  0  0  0  0  0
    6.8888    4.2688   -0.1311 H   0  0  0  0  0  0  0  0  0  0  0  0
    7.1960    3.2780    1.3196 H   0  0  0  0  0  0  0  0  0  0  0  0
    2.5468   -4.9198    0.1830 H   0  0  0  0  0  0  0  0  0  0  0  0
    2.3357   -3.9917   -1.3202 H   0  0  0  0  0  0  0  0  0  0  0  0
    4.0266   -3.0643    2.2520 H   0  0  0  0  0  0  0  0  0  0  0  0
    6.2472   -1.6357    1.5507 H   0  0  0  0  0  0  0  0  0  0  0  0
    6.1610   -1.5548   -1.2102 H   0  0  0  0  0  0  0  0  0  0  0  0
  1 22  1  0  0  0  0
  1 25  1  0  0  0  0
  2 15  1  0  0  0  0
  2 55  1  0  0  0  0
  3 20  1  0  0  0  0
  3 56  1  0  0  0  0
  4 24  2  0  0  0  0
  5 27  2  0  0  0  0
  6 32  1  0  0  0  0
  6 35  1  0  0  0  0
  7 19  1  0  0  0  0
  7 25  2  0  0  0  0
  8 25  1  0  0  0  0
  8 27  1  0  0  0  0
  8 57  1  0  0  0  0
  9 24  1  0  0  0  0
  9 31  1  0  0  0  0
  9 58  1  0  0  0  0
 10 11  1  0  0  0  0
 10 13  1  0  0  0  0
 10 14  1  0  0  0  0
 10 18  1  0  0  0  0
 11 12  1  0  0  0  0
 11 16  1  0  0  0  0
 11 36  1  0  0  0  0
 12 15  1  0  0  0  0
 12 20  1  0  0  0  0
 12 21  1  0  0  0  0
 13 19  1  0  0  0  0
 13 23  1  0  0  0  0
 13 37  1  0  0  0  0
 14 17  1  0  0  0  0
 14 38  1  0  0  0  0
 14 39  1  0  0  0  0
 15 17  1  0  0  0  0
 15 40  1  0  0  0  0
 16 22  1  0  0  0  0
 16 41  1  0  0  0  0
 16 42  1  0  0  0  0
 17 43  1  0  0  0  0
 17 44  1  0  0  0  0
 18 45  1  0  0  0  0
 18 46  1  0  0  0  0
 18 47  1  0  0  0  0
 19 22  2  0  0  0  0
 20 48  1  0  0  0  0
 20 49  1  0  0  0  0
 21 50  1  0  0  0  0
 21 51  1  0  0  0  0
 21 52  1  0  0  0  0
 23 24  1  0  0  0  0
 23 53  1  0  0  0  0
 23 54  1  0  0  0  0
 26 27  1  0  0  0  0
 26 28  1  0  0  0  0
 26 29  1  0  0  0  0
 26 59  1  0  0  0  0
 28 30  1  0  0  0  0
 28 60  1  0  0  0  0
 28 61  1  0  0  0  0
 29 30  1  0  0  0  0
 29 62  1  0  0  0  0
 29 63  1  0  0  0  0
 30 64  1  0  0  0  0
 30 65  1  0  0  0  0
 31 32  1  0  0  0  0
 31 66  1  0  0  0  0
 31 67  1  0  0  0  0
 32 33  2  0  0  0  0
 33 34  1  0  0  0  0
 33 68  1  0  0  0  0
 34 35  2  0  0  0  0
 34 69  1  0  0  0  0
 35 70  1  0  0  0  0
M  END
> <PUBCHEM_COMPOUND_CID>
11883092

> <PUBCHEM_CONFORMER_RMSD>
1.2

> <PUBCHEM_CONFORMER_DIVERSEORDER>
1
19
12
21
18
20
25
16
11
22
24
8
5
15
6
23
17
9
4
26
13
14
3
10
2
7

> <PUBCHEM_MMFF94_PARTIAL_CHARGES>
32
1 -0.08
13 0.18
15 0.28
16 0.18
19 0.05
2 -0.68
20 0.28
22 -0.14
23 0.06
24 0.57
25 0.44
26 0.05
27 0.58
3 -0.68
31 0.48
32 -0.04
33 -0.15
34 -0.15
35 -0.01
4 -0.57
5 -0.57
55 0.4
56 0.4
57 0.37
58 0.37
6 -0.28
68 0.15
69 0.15
7 -0.57
70 0.15
8 -0.49
9 -0.73

> <PUBCHEM_EFFECTIVE_ROTOR_COUNT>
11

> <PUBCHEM_PHARMACOPHORE_FEATURES>
14
1 2 acceptor
1 2 donor
1 3 acceptor
1 3 donor
1 4 acceptor
1 5 acceptor
1 6 acceptor
1 8 donor
1 9 donor
4 26 28 29 30 rings
5 1 7 19 22 25 rings
5 6 32 33 34 35 rings
6 10 11 12 14 15 17 rings
6 10 11 13 16 19 22 rings

> <PUBCHEM_HEAVY_ATOM_COUNT>
35

> <PUBCHEM_ATOM_DEF_STEREO_COUNT>
5

> <PUBCHEM_ATOM_UDEF_STEREO_COUNT>
0

> <PUBCHEM_BOND_DEF_STEREO_COUNT>
0

> <PUBCHEM_BOND_UDEF_STEREO_COUNT>
0

> <PUBCHEM_ISOTOPIC_ATOM_COUNT>
0

> <PUBCHEM_COMPONENT_COUNT>
1

> <PUBCHEM_CACTVS_TAUTO_COUNT>
6

> <PUBCHEM_CONFORMER_ID>
00B5525400000001

> <PUBCHEM_MMFF94_ENERGY>
90.0752

> <PUBCHEM_FEATURE_SELFOVERLAP>
71.195

> <PUBCHEM_SHAPE_FINGERPRINT>
10838868 158 17462303631089356835
1100329 8 17834680388092085105
11135609 187 18339641260497675664
11135926 11 18410570717256787461
11136131 41 18334284393267383226
11227688 84 17478035521281125151
11578080 2 17096902734704232663
11719270 70 18337667629042434456
12977781 61 17677350409810335994
13533116 47 18412825776929629032
1361 2 18408603682411811984
13811026 1 18261954149856435155
14394314 77 18412548746827624353
14415360 78 17322941254050471757
14725015 67 18188482472734036610
14784336 7 18059572550463548321
14840074 17 17916576532133601335
15001296 14 18409445890785715978
15200665 1 17691967485262654330
15400415 2 18122342643350509956
15684970 41 15266480989909357855
15815584 197 18193016986639055303
15927050 60 18196932386839049038
16067689 302 18340209700179372263
20642791 35 18410579479058720838
20721686 56 18335423469769496498
21279426 13 18334008363881526469
21344244 246 18337946900690067783
23559900 14 18339070489635395267
24771293 8 18271795797027413058
24771750 20 18188507872299895183
3298306 158 18338802342026593652
3411729 13 18335983155568748122
4017518 198 18199477739440835590
4073 2 18263368160327213272
4093350 32 17561371668913368420
5104073 3 18409459089541736683
5385378 56 18410864265270490049
5776283 40 18337966671020415822
59755656 215 18337955696113300420
6669772 16 18409727396006266590
67856867 119 18410292488858536495
99344 41 18411133671288858912
9961470 85 18268144435323773458

> <PUBCHEM_SHAPE_MULTIPOLES>
679.84
17.19
5.18
1.06
5.53
0.8
0.19
-4.96
0.69
-10.04
0.18
0.39
0.15
0.26

> <PUBCHEM_SHAPE_SELFOVERLAP>
1439.825

> <PUBCHEM_SHAPE_VOLUME>
384.4

> <PUBCHEM_COORDINATE_TYPE>
2
5
10

$$$$
