75536735
  -OEChem-12032416323D

 46 47  0     1  0  0  0  0  0999 V2000
    3.1917    0.5875    0.7355 O   0  0  0  0  0  0  0  0  0  0  0  0
    3.8360   -2.4090   -0.1996 O   0  0  0  0  0  0  0  0  0  0  0  0
    1.4515    2.8804   -0.0543 O   0  0  0  0  0  0  0  0  0  0  0  0
    0.5795   -1.0290    0.6531 N   0  0  0  0  0  0  0  0  0  0  0  0
    1.2685    0.9337   -1.3087 N   0  0  0  0  0  0  0  0  0  0  0  0
   -0.6244    1.9113   -0.4217 N   0  0  0  0  0  0  0  0  0  0  0  0
   -3.8323   -1.1087    0.9107 N   0  0  0  0  0  0  0  0  0  0  0  0
    1.9632   -1.4298    0.8984 C   0  0  1  0  0  0  0  0  0  0  0  0
    2.7690   -1.4765   -0.3879 C   0  0  1  0  0  0  0  0  0  0  0  0
    3.3536   -0.0721   -0.5340 C   0  0  1  0  0  0  0  0  0  0  0  0
    2.7007   -0.3617    1.6895 C   0  0  0  0  0  0  0  0  0  0  0  0
    2.6633    0.7659   -1.5993 C   0  0  0  0  0  0  0  0  0  0  0  0
   -0.2499   -2.1816    0.3221 C   0  0  0  0  0  0  0  0  0  0  0  0
   -1.6769   -1.7858    0.0501 C   0  0  0  0  0  0  0  0  0  0  0  0
    0.7601    1.9908   -0.5486 C   0  0  0  0  0  0  0  0  0  0  0  0
   -1.3996    2.8812    0.3155 C   0  0  0  0  0  0  0  0  0  0  0  0
   -2.1689   -1.7267   -1.2491 C   0  0  0  0  0  0  0  0  0  0  0  0
   -2.5414   -1.4701    1.0859 C   0  0  0  0  0  0  0  0  0  0  0  0
   -2.7824    3.0427   -0.3038 C   0  0  0  0  0  0  0  0  0  0  0  0
   -1.4950    2.4789    1.7815 C   0  0  0  0  0  0  0  0  0  0  0  0
   -3.4915   -1.3588   -1.4696 C   0  0  0  0  0  0  0  0  0  0  0  0
   -4.2748   -1.0624   -0.3659 C   0  0  0  0  0  0  0  0  0  0  0  0
    1.9956   -2.3664    1.4684 H   0  0  0  0  0  0  0  0  0  0  0  0
    2.2107   -1.8170   -1.2654 H   0  0  0  0  0  0  0  0  0  0  0  0
    4.4275   -0.1073   -0.7511 H   0  0  0  0  0  0  0  0  0  0  0  0
    2.0869    0.1514    2.4365 H   0  0  0  0  0  0  0  0  0  0  0  0
    3.5676   -0.7898    2.2065 H   0  0  0  0  0  0  0  0  0  0  0  0
    2.7469    0.2929   -2.5829 H   0  0  0  0  0  0  0  0  0  0  0  0
    3.1264    1.7575   -1.6510 H   0  0  0  0  0  0  0  0  0  0  0  0
    0.2023   -0.5874    1.4920 H   0  0  0  0  0  0  0  0  0  0  0  0
   -0.2470   -2.9103    1.1435 H   0  0  0  0  0  0  0  0  0  0  0  0
    0.1486   -2.7047   -0.5557 H   0  0  0  0  0  0  0  0  0  0  0  0
    4.3677   -2.4097   -1.0139 H   0  0  0  0  0  0  0  0  0  0  0  0
    0.6169    0.2424   -1.6673 H   0  0  0  0  0  0  0  0  0  0  0  0
   -1.0986    1.0998   -0.8058 H   0  0  0  0  0  0  0  0  0  0  0  0
   -0.8818    3.8462    0.2578 H   0  0  0  0  0  0  0  0  0  0  0  0
   -1.5317   -1.9612   -2.0973 H   0  0  0  0  0  0  0  0  0  0  0  0
   -2.2160   -1.4978    2.1213 H   0  0  0  0  0  0  0  0  0  0  0  0
   -2.7041    3.3473   -1.3531 H   0  0  0  0  0  0  0  0  0  0  0  0
   -3.3635    3.8031    0.2280 H   0  0  0  0  0  0  0  0  0  0  0  0
   -3.3437    2.1024   -0.2750 H   0  0  0  0  0  0  0  0  0  0  0  0
   -2.0552    3.2239    2.3559 H   0  0  0  0  0  0  0  0  0  0  0  0
   -0.4993    2.3864    2.2289 H   0  0  0  0  0  0  0  0  0  0  0  0
   -1.9971    1.5124    1.8966 H   0  0  0  0  0  0  0  0  0  0  0  0
   -3.8960   -1.3044   -2.4737 H   0  0  0  0  0  0  0  0  0  0  0  0
   -5.3127   -0.7691   -0.4842 H   0  0  0  0  0  0  0  0  0  0  0  0
  1 10  1  0  0  0  0
  1 11  1  0  0  0  0
  2  9  1  0  0  0  0
  2 33  1  0  0  0  0
  3 15  2  0  0  0  0
  4  8  1  0  0  0  0
  4 13  1  0  0  0  0
  4 30  1  0  0  0  0
  5 12  1  0  0  0  0
  5 15  1  0  0  0  0
  5 34  1  0  0  0  0
  6 15  1  0  0  0  0
  6 16  1  0  0  0  0
  6 35  1  0  0  0  0
  7 18  1  0  0  0  0
  7 22  2  0  0  0  0
  8  9  1  0  0  0  0
  8 11  1  0  0  0  0
  8 23  1  0  0  0  0
  9 10  1  0  0  0  0
  9 24  1  0  0  0  0
 10 12  1  0  0  0  0
 10 25  1  0  0  0  0
 11 26  1  0  0  0  0
 11 27  1  0  0  0  0
 12 28  1  0  0  0  0
 12 29  1  0  0  0  0
 13 14  1  0  0  0  0
 13 31  1  0  0  0  0
 13 32  1  0  0  0  0
 14 17  1  0  0  0  0
 14 18  2  0  0  0  0
 16 19  1  0  0  0  0
 16 20  1  0  0  0  0
 16 36  1  0  0  0  0
 17 21  2  0  0  0  0
 17 37  1  0  0  0  0
 18 38  1  0  0  0  0
 19 39  1  0  0  0  0
 19 40  1  0  0  0  0
 19 41  1  0  0  0  0
 20 42  1  0  0  0  0
 20 43  1  0  0  0  0
 20 44  1  0  0  0  0
 21 22  1  0  0  0  0
 21 45  1  0  0  0  0
 22 46  1  0  0  0  0
M  END
> <PUBCHEM_COMPOUND_CID>
75536735

> <PUBCHEM_CONFORMER_RMSD>
0.8

> <PUBCHEM_CONFORMER_DIVERSEORDER>
6
8
178
273
157
259
12
184
278
238
265
28
171
81
53
118
141
253
94
239
209
207
105
73
257
112
186
18
220
203
111
1
219
108
263
212
200
214
279
110
131
208
92
79
223
256
135
254
177
158
114
211
56
251
275
74
166
233
213
30
202
153
72
205
68
40
64
199
61
138
191
264
130
38
128
150
261
280
26
237
43
160
103
226
126
156
144
255
67
274
113
266
69
143
29
189
139
132
168
162
95
267
60
120
249
248
45
276
272
2
201
170
101
218
54
181
216
188
270
86
196
206
182
85
37
65
268
16
165
62
163
107
210
227
102
269
262
88
22
121
137
174
23
58
70
117
185
155
77
258
119
142
82
242
21
83
228
90
125
241
78
240
221
154
129
75
27
17
145
39
24
197
52
19
179
281
252
59
169
35
235
80
124
116
134
41
104
136
192
122
33
34
44
109
123
172
127
245
149
51
49
148
260
84
97
63
46
55
225
13
36
50
204
25
115
246
229
4
66
176
244
234
96
231
100
76
180
215
140
277
224
194
89
71
152
5
187
190
271
159
175
247
31
20
48
193
195
47
230
147
146
243
11
151
32
106
93
133
57
217
99
167
173
42
250
222
7
198
14
164
10
91
183
236
3
87
98
161
15
9
232

> <PUBCHEM_MMFF94_PARTIAL_CHARGES>
28
1 -0.56
10 0.28
11 0.28
12 0.3
13 0.41
14 -0.14
15 0.69
16 0.3
17 -0.15
18 0.16
2 -0.68
21 -0.15
22 0.16
3 -0.57
30 0.36
33 0.4
34 0.37
35 0.37
37 0.15
38 0.15
4 -0.9
45 0.15
46 0.15
5 -0.73
6 -0.73
7 -0.62
8 0.27
9 0.28

> <PUBCHEM_EFFECTIVE_ROTOR_COUNT>
9

> <PUBCHEM_PHARMACOPHORE_FEATURES>
12
1 1 acceptor
1 2 acceptor
1 2 donor
1 3 acceptor
1 4 cation
1 4 donor
1 5 donor
1 6 donor
1 7 acceptor
3 16 19 20 hydrophobe
5 1 8 9 10 11 rings
6 7 14 17 18 21 22 rings

> <PUBCHEM_HEAVY_ATOM_COUNT>
22

> <PUBCHEM_ATOM_DEF_STEREO_COUNT>
3

> <PUBCHEM_ATOM_UDEF_STEREO_COUNT>
0

> <PUBCHEM_BOND_DEF_STEREO_COUNT>
0

> <PUBCHEM_BOND_UDEF_STEREO_COUNT>
0

> <PUBCHEM_ISOTOPIC_ATOM_COUNT>
0

> <PUBCHEM_COMPONENT_COUNT>
1

> <PUBCHEM_CACTVS_TAUTO_COUNT>
3

> <PUBCHEM_CONFORMER_ID>
0480995F00000006

> <PUBCHEM_MMFF94_ENERGY>
38.3748

> <PUBCHEM_FEATURE_SELFOVERLAP>
60.949

> <PUBCHEM_SHAPE_FINGERPRINT>
10064457 181 17624421878802238056
104564 63 18410015416312695629
11578080 2 17846199047533628705
12422481 6 18052849995417945433
12553582 1 18338805635818006293
12715332 25 17619349806231307986
12788726 201 18412271648496129309
13140716 1 17902510720624127202
14081887 123 18200860834025340896
14464042 87 18343023272961155761
16752209 62 18410293592833605453
17138139 8 17693894607456927709
17357779 13 18339347626320505991
19591789 44 16680065514950126662
19930381 70 17544479012993577651
20261772 1 18266194837350317961
20600515 1 17971725956634225610
21236236 1 18338517431403327430
23419403 2 17395237721220222192
23557571 272 18270950285343837706
238 59 17114086228218553527
2803657 2 18334584563397611880
3052486 1 18262792961332454336
35225 105 17842826738134401249
3524813 1 17751066110638571095
394222 165 16736077326467033836
445580 8 18270983279519722515
6438718 38 18201166447013289973
7226269 152 17758404359028584748
81228 2 18337102376268604970

> <PUBCHEM_SHAPE_MULTIPOLES>
415.22
6.84
3.77
1.49
0.89
2.82
-0.11
-3.12
0.62
1.76
-0.21
-0.02
0.09
-0.78

> <PUBCHEM_SHAPE_SELFOVERLAP>
848.732

> <PUBCHEM_SHAPE_VOLUME>
240.2

> <PUBCHEM_COORDINATE_TYPE>
2
5
10

$$$$
