45783696
  -OEChem-12032416203D

 49 52  0     1  0  0  0  0  0999 V2000
   -0.7927   -0.9415    2.1322 O   0  0  0  0  0  0  0  0  0  0  0  0
   -2.0926    1.3192   -2.0404 O   0  0  0  0  0  0  0  0  0  0  0  0
    6.0618   -0.0732   -0.9958 O   0  0  0  0  0  0  0  0  0  0  0  0
   -3.2097   -0.8655   -0.4175 N   0  0  1  0  0  0  0  0  0  0  0  0
   -0.1238   -1.2645    0.0191 N   0  0  0  0  0  0  0  0  0  0  0  0
    0.5735   -0.6340    2.1048 N   0  0  0  0  0  0  0  0  0  0  0  0
    4.5227   -0.0339    0.7401 N   0  0  0  0  0  0  0  0  0  0  0  0
   -2.5676   -1.6883    0.6271 C   0  0  1  0  0  0  0  0  0  0  0  0
   -2.7232   -3.1385    0.1333 C   0  0  0  0  0  0  0  0  0  0  0  0
   -3.5167   -3.0348   -1.1615 C   0  0  0  0  0  0  0  0  0  0  0  0
   -4.2355   -1.7069   -1.0340 C   0  0  0  0  0  0  0  0  0  0  0  0
   -3.7593    0.3840    0.0926 C   0  0  0  0  0  0  0  0  0  0  0  0
   -1.1224   -1.3035    0.8647 C   0  0  0  0  0  0  0  0  0  0  0  0
   -2.6935    1.4313    0.2776 C   0  0  0  0  0  0  0  0  0  0  0  0
   -1.9105    1.8492   -0.7984 C   0  0  0  0  0  0  0  0  0  0  0  0
   -2.4930    1.9843    1.5423 C   0  0  0  0  0  0  0  0  0  0  0  0
    0.8952   -0.8483    0.8256 C   0  0  0  0  0  0  0  0  0  0  0  0
   -0.9271    2.8202   -0.6097 C   0  0  0  0  0  0  0  0  0  0  0  0
   -1.5096    2.9554    1.7311 C   0  0  0  0  0  0  0  0  0  0  0  0
    2.2247   -0.6577    0.3219 C   0  0  0  0  0  0  0  0  0  0  0  0
   -0.7265    3.3733    0.6551 C   0  0  0  0  0  0  0  0  0  0  0  0
    2.5240   -0.8920   -1.0157 C   0  0  0  0  0  0  0  0  0  0  0  0
    3.2504   -0.2336    1.1513 C   0  0  0  0  0  0  0  0  0  0  0  0
   -1.2477    1.8048   -3.0818 C   0  0  0  0  0  0  0  0  0  0  0  0
    3.8215   -0.6978   -1.4763 C   0  0  0  0  0  0  0  0  0  0  0  0
    4.7759   -0.2718   -0.5664 C   0  0  0  0  0  0  0  0  0  0  0  0
    7.0016    0.3641   -0.0212 C   0  0  0  0  0  0  0  0  0  0  0  0
   -3.1142   -1.6070    1.5773 H   0  0  0  0  0  0  0  0  0  0  0  0
   -3.2964   -3.7176    0.8677 H   0  0  0  0  0  0  0  0  0  0  0  0
   -1.7729   -3.6571   -0.0330 H   0  0  0  0  0  0  0  0  0  0  0  0
   -4.2056   -3.8743   -1.2931 H   0  0  0  0  0  0  0  0  0  0  0  0
   -2.8313   -3.0181   -2.0181 H   0  0  0  0  0  0  0  0  0  0  0  0
   -4.5503   -1.3248   -2.0100 H   0  0  0  0  0  0  0  0  0  0  0  0
   -5.1176   -1.8120   -0.3896 H   0  0  0  0  0  0  0  0  0  0  0  0
   -4.4750    0.8011   -0.6301 H   0  0  0  0  0  0  0  0  0  0  0  0
   -4.3354    0.2263    1.0140 H   0  0  0  0  0  0  0  0  0  0  0  0
   -3.0932    1.6675    2.3910 H   0  0  0  0  0  0  0  0  0  0  0  0
   -0.2805    3.1929   -1.3966 H   0  0  0  0  0  0  0  0  0  0  0  0
   -1.3525    3.3849    2.7161 H   0  0  0  0  0  0  0  0  0  0  0  0
    0.0398    4.1286    0.8037 H   0  0  0  0  0  0  0  0  0  0  0  0
    1.7669   -1.2250   -1.7210 H   0  0  0  0  0  0  0  0  0  0  0  0
    3.1000   -0.0283    2.2070 H   0  0  0  0  0  0  0  0  0  0  0  0
   -1.4088    2.8719   -3.2688 H   0  0  0  0  0  0  0  0  0  0  0  0
   -0.1955    1.5674   -2.8911 H   0  0  0  0  0  0  0  0  0  0  0  0
   -1.5306    1.2759   -3.9980 H   0  0  0  0  0  0  0  0  0  0  0  0
    4.0714   -0.8758   -2.5165 H   0  0  0  0  0  0  0  0  0  0  0  0
    6.7179    1.3395    0.3882 H   0  0  0  0  0  0  0  0  0  0  0  0
    7.1131   -0.3770    0.7773 H   0  0  0  0  0  0  0  0  0  0  0  0
    7.9714    0.4754   -0.5152 H   0  0  0  0  0  0  0  0  0  0  0  0
  1  6  1  0  0  0  0
  1 13  1  0  0  0  0
  2 15  1  0  0  0  0
  2 24  1  0  0  0  0
  3 26  1  0  0  0  0
  3 27  1  0  0  0  0
  4  8  1  0  0  0  0
  4 11  1  0  0  0  0
  4 12  1  0  0  0  0
  5 13  2  0  0  0  0
  5 17  1  0  0  0  0
  6 17  2  0  0  0  0
  7 23  1  0  0  0  0
  7 26  2  0  0  0  0
  8  9  1  0  0  0  0
  8 13  1  0  0  0  0
  8 28  1  0  0  0  0
  9 10  1  0  0  0  0
  9 29  1  0  0  0  0
  9 30  1  0  0  0  0
 10 11  1  0  0  0  0
 10 31  1  0  0  0  0
 10 32  1  0  0  0  0
 11 33  1  0  0  0  0
 11 34  1  0  0  0  0
 12 14  1  0  0  0  0
 12 35  1  0  0  0  0
 12 36  1  0  0  0  0
 14 15  1  0  0  0  0
 14 16  2  0  0  0  0
 15 18  2  0  0  0  0
 16 19  1  0  0  0  0
 16 37  1  0  0  0  0
 17 20  1  0  0  0  0
 18 21  1  0  0  0  0
 18 38  1  0  0  0  0
 19 21  2  0  0  0  0
 19 39  1  0  0  0  0
 20 22  1  0  0  0  0
 20 23  2  0  0  0  0
 21 40  1  0  0  0  0
 22 25  2  0  0  0  0
 22 41  1  0  0  0  0
 23 42  1  0  0  0  0
 24 43  1  0  0  0  0
 24 44  1  0  0  0  0
 24 45  1  0  0  0  0
 25 26  1  0  0  0  0
 25 46  1  0  0  0  0
 27 47  1  0  0  0  0
 27 48  1  0  0  0  0
 27 49  1  0  0  0  0
M  END
> <PUBCHEM_COMPOUND_CID>
45783696

> <PUBCHEM_CONFORMER_RMSD>
0.8

> <PUBCHEM_CONFORMER_DIVERSEORDER>
1
157
140
169
171
52
184
165
74
18
26
73
121
72
16
80
116
15
139
112
83
182
39
40
17
142
93
172
177
48
3
183
137
59
56
45
176
82
168
44
191
115
130
174
20
144
117
81
101
159
65
88
25
136
111
147
2
120
175
51
114
70
122
28
99
152
104
153
162
126
173
38
108
129
24
61
141
166
62
78
160
79
34
146
90
14
134
77
63
69
31
170
179
145
133
185
32
107
125
49
187
58
189
30
42
181
92
87
102
94
138
85
131
89
35
22
143
46
105
19
97
124
23
180
113
163
164
12
167
67
132
128
127
186
96
9
60
100
123
158
68
150
149
151
57
71
86
21
110
155
154
8
33
7
156
118
103
91
43
190
54
55
84
148
98
135
5
29
10
37
53
27
161
106
95
178
13
47
188
36
50
64
119
76
109
66
41
6
4
75
11

> <PUBCHEM_MMFF94_PARTIAL_CHARGES>
32
1 -0.02
11 0.27
12 0.41
13 0.3
14 -0.14
15 0.08
16 -0.15
17 0.46
18 -0.15
19 -0.15
2 -0.36
20 0.05
21 -0.15
22 -0.15
23 0.16
24 0.28
25 -0.15
26 0.39
27 0.28
3 -0.36
37 0.15
38 0.15
39 0.15
4 -0.81
40 0.15
41 0.15
42 0.15
46 0.15
5 -0.57
6 -0.41
7 -0.62
8 0.45

> <PUBCHEM_EFFECTIVE_ROTOR_COUNT>
7

> <PUBCHEM_PHARMACOPHORE_FEATURES>
7
1 2 acceptor
1 4 cation
3 5 6 17 cation
5 1 5 6 13 17 rings
5 4 8 9 10 11 rings
6 14 15 16 18 19 21 rings
6 7 20 22 23 25 26 rings

> <PUBCHEM_HEAVY_ATOM_COUNT>
27

> <PUBCHEM_ATOM_DEF_STEREO_COUNT>
1

> <PUBCHEM_ATOM_UDEF_STEREO_COUNT>
0

> <PUBCHEM_BOND_DEF_STEREO_COUNT>
0

> <PUBCHEM_BOND_UDEF_STEREO_COUNT>
0

> <PUBCHEM_ISOTOPIC_ATOM_COUNT>
0

> <PUBCHEM_COMPONENT_COUNT>
1

> <PUBCHEM_CACTVS_TAUTO_COUNT>
1

> <PUBCHEM_CONFORMER_ID>
02BA9A9000000001

> <PUBCHEM_MMFF94_ENERGY>
70.67

> <PUBCHEM_FEATURE_SELFOVERLAP>
35.523

> <PUBCHEM_SHAPE_FINGERPRINT>
107951 10 17415007850757573489
10871710 139 17676763185097123069
10937287 8 17621041962662840136
11477941 20 18341048622981832076
12156800 1 16086656130248768109
12166972 35 16661211493341738502
12173636 292 17982167821174235137
12788726 201 18408878529864101699
13761468 95 17754467750812768780
13994607 96 17168444691431156987
14142880 1 17896891958593011165
14713325 29 18272658908969937430
14910302 57 18130790006128137934
14955137 171 18268447853283378227
15183329 4 17749677290926625366
15463212 79 18263929851728753010
15849732 13 18200889435146137803
15961568 22 18195238048153213592
17357779 13 18200296840605602951
17492 54 17969764342639565741
17686467 74 18118681261350408448
17818456 19 18049144580712700186
20691752 17 17315326337300140273
20775438 99 16828097764993425783
21033650 10 18191329116901688286
21623110 236 18189067536947018348
22907989 373 18268129982099588823
23419403 2 17835762616755403861
23557571 272 18343585157071740426
469060 322 17386590010559228513
531348 171 18270691844567340334

> <PUBCHEM_SHAPE_MULTIPOLES>
518.12
10.31
3.54
2.04
21.67
1.26
-0.76
-3.2
-2.4
-5.21
0.07
-0.67
0.81
-0.32

> <PUBCHEM_SHAPE_SELFOVERLAP>
1122.826

> <PUBCHEM_SHAPE_VOLUME>
285.5

> <PUBCHEM_COORDINATE_TYPE>
2
5
10

$$$$
