26743860
  -OEChem-12032416393D

 47 50  0     1  0  0  0  0  0999 V2000
    5.0478   -2.5867    1.1897 O   0  0  0  0  0  0  0  0  0  0  0  0
    0.6054   -1.3453   -2.1590 O   0  0  0  0  0  0  0  0  0  0  0  0
    1.0030    1.6879    2.1020 O   0  0  0  0  0  0  0  0  0  0  0  0
    2.8019    0.0839    0.4182 N   0  0  1  0  0  0  0  0  0  0  0  0
   -0.0041   -0.8133   -0.0705 N   0  0  0  0  0  0  0  0  0  0  0  0
   -0.7941   -1.3974   -2.1366 N   0  0  0  0  0  0  0  0  0  0  0  0
    2.4789   -0.8682   -0.6639 C   0  0  1  0  0  0  0  0  0  0  0  0
    3.1268   -2.1953   -0.2271 C   0  0  0  0  0  0  0  0  0  0  0  0
    3.8281   -1.8779    1.0877 C   0  0  2  0  0  0  0  0  0  0  0  0
    4.0519   -0.3792    1.0176 C   0  0  0  0  0  0  0  0  0  0  0  0
    2.8915    1.4644   -0.0391 C   0  0  0  0  0  0  0  0  0  0  0  0
    0.9892   -0.9948   -0.9036 C   0  0  0  0  0  0  0  0  0  0  0  0
    1.5319    2.0908   -0.2009 C   0  0  0  0  0  0  0  0  0  0  0  0
    0.6517    2.1729    0.8782 C   0  0  0  0  0  0  0  0  0  0  0  0
    1.1552    2.5903   -1.4477 C   0  0  0  0  0  0  0  0  0  0  0  0
   -1.0778   -1.0716   -0.8720 C   0  0  0  0  0  0  0  0  0  0  0  0
   -2.4223   -0.9966   -0.3776 C   0  0  0  0  0  0  0  0  0  0  0  0
   -0.6050    2.7544    0.7106 C   0  0  0  0  0  0  0  0  0  0  0  0
   -0.1016    3.1722   -1.6152 C   0  0  0  0  0  0  0  0  0  0  0  0
   -0.9817    3.2540   -0.5361 C   0  0  0  0  0  0  0  0  0  0  0  0
   -2.6584   -0.6511    0.9530 C   0  0  0  0  0  0  0  0  0  0  0  0
   -3.4938   -1.2680   -1.2286 C   0  0  0  0  0  0  0  0  0  0  0  0
   -3.9661   -0.5766    1.4328 C   0  0  0  0  0  0  0  0  0  0  0  0
   -4.8014   -1.1938   -0.7488 C   0  0  0  0  0  0  0  0  0  0  0  0
   -5.0377   -0.8479    0.5818 C   0  0  0  0  0  0  0  0  0  0  0  0
   -4.2193   -0.2073    2.8553 C   0  0  0  0  0  0  0  0  0  0  0  0
    2.9567   -0.5621   -1.6052 H   0  0  0  0  0  0  0  0  0  0  0  0
    2.4026   -3.0058   -0.0850 H   0  0  0  0  0  0  0  0  0  0  0  0
    3.8471   -2.5328   -0.9828 H   0  0  0  0  0  0  0  0  0  0  0  0
    3.1889   -2.1365    1.9407 H   0  0  0  0  0  0  0  0  0  0  0  0
    4.2163    0.0448    2.0138 H   0  0  0  0  0  0  0  0  0  0  0  0
    4.9283   -0.1434    0.3994 H   0  0  0  0  0  0  0  0  0  0  0  0
    3.4875    1.5486   -0.9574 H   0  0  0  0  0  0  0  0  0  0  0  0
    3.4208    2.0729    0.7078 H   0  0  0  0  0  0  0  0  0  0  0  0
    4.8381   -3.5355    1.1528 H   0  0  0  0  0  0  0  0  0  0  0  0
    1.8284    2.5316   -2.2986 H   0  0  0  0  0  0  0  0  0  0  0  0
   -1.3016    2.8225    1.5419 H   0  0  0  0  0  0  0  0  0  0  0  0
   -0.3956    3.5597   -2.5861 H   0  0  0  0  0  0  0  0  0  0  0  0
   -1.9609    3.7050   -0.6671 H   0  0  0  0  0  0  0  0  0  0  0  0
   -1.8361   -0.4374    1.6324 H   0  0  0  0  0  0  0  0  0  0  0  0
    0.2655    1.8245    2.7211 H   0  0  0  0  0  0  0  0  0  0  0  0
   -3.3489   -1.5400   -2.2711 H   0  0  0  0  0  0  0  0  0  0  0  0
   -5.6360   -1.4053   -1.4109 H   0  0  0  0  0  0  0  0  0  0  0  0
   -6.0612   -0.7953    0.9432 H   0  0  0  0  0  0  0  0  0  0  0  0
   -4.1418   -1.0934    3.4930 H   0  0  0  0  0  0  0  0  0  0  0  0
   -3.4967    0.5405    3.1998 H   0  0  0  0  0  0  0  0  0  0  0  0
   -5.2162    0.2280    2.9834 H   0  0  0  0  0  0  0  0  0  0  0  0
  1  9  1  0  0  0  0
  1 35  1  0  0  0  0
  2  6  1  0  0  0  0
  2 12  1  0  0  0  0
  3 14  1  0  0  0  0
  3 41  1  0  0  0  0
  4  7  1  0  0  0  0
  4 10  1  0  0  0  0
  4 11  1  0  0  0  0
  5 12  2  0  0  0  0
  5 16  1  0  0  0  0
  6 16  2  0  0  0  0
  7  8  1  0  0  0  0
  7 12  1  0  0  0  0
  7 27  1  0  0  0  0
  8  9  1  0  0  0  0
  8 28  1  0  0  0  0
  8 29  1  0  0  0  0
  9 10  1  0  0  0  0
  9 30  1  0  0  0  0
 10 31  1  0  0  0  0
 10 32  1  0  0  0  0
 11 13  1  0  0  0  0
 11 33  1  0  0  0  0
 11 34  1  0  0  0  0
 13 14  1  0  0  0  0
 13 15  2  0  0  0  0
 14 18  2  0  0  0  0
 15 19  1  0  0  0  0
 15 36  1  0  0  0  0
 16 17  1  0  0  0  0
 17 21  1  0  0  0  0
 17 22  2  0  0  0  0
 18 20  1  0  0  0  0
 18 37  1  0  0  0  0
 19 20  2  0  0  0  0
 19 38  1  0  0  0  0
 20 39  1  0  0  0  0
 21 23  2  0  0  0  0
 21 40  1  0  0  0  0
 22 24  1  0  0  0  0
 22 42  1  0  0  0  0
 23 25  1  0  0  0  0
 23 26  1  0  0  0  0
 24 25  2  0  0  0  0
 24 43  1  0  0  0  0
 25 44  1  0  0  0  0
 26 45  1  0  0  0  0
 26 46  1  0  0  0  0
 26 47  1  0  0  0  0
M  END
> <PUBCHEM_COMPOUND_CID>
26743860

> <PUBCHEM_CONFORMER_RMSD>
0.8

> <PUBCHEM_CONFORMER_DIVERSEORDER>
1
10
115
59
135
146
102
63
85
129
93
141
104
94
82
107
108
152
42
165
124
120
109
19
71
145
159
74
131
133
114
90
158
119
56
84
88
139
16
160
117
33
164
65
52
137
46
62
144
118
153
97
78
103
110
113
54
58
25
167
142
130
57
68
155
162
126
67
157
125
49
101
156
45
122
4
70
26
150
5
91
138
134
53
112
2
37
38
106
163
79
86
116
50
143
87
41
151
40
44
14
105
147
39
64
149
95
92
7
121
8
148
154
61
55
21
51
99
12
3
98
28
30
96
43
111
15
100
168
161
18
9
48
81
20
83
32
80
17
11
132
140
77
23
36
60
123
13
29
136
89
34
31
75
166
73
47
6
76
127
35
27
24
22
72
69
66
128

> <PUBCHEM_MMFF94_PARTIAL_CHARGES>
35
1 -0.68
10 0.27
11 0.41
12 0.3
13 -0.14
14 0.08
15 -0.15
16 0.46
17 0.05
18 -0.15
19 -0.15
2 -0.02
20 -0.15
21 -0.15
22 -0.15
23 -0.14
24 -0.15
25 -0.15
26 0.14
3 -0.53
35 0.4
36 0.15
37 0.15
38 0.15
39 0.15
4 -0.81
40 0.15
41 0.45
42 0.15
43 0.15
44 0.15
5 -0.57
6 -0.41
7 0.45
9 0.28

> <PUBCHEM_EFFECTIVE_ROTOR_COUNT>
5

> <PUBCHEM_PHARMACOPHORE_FEATURES>
9
1 1 acceptor
1 1 donor
1 3 donor
1 4 cation
3 5 6 16 cation
5 2 5 6 12 16 rings
5 4 7 8 9 10 rings
6 13 14 15 18 19 20 rings
6 17 21 22 23 24 25 rings

> <PUBCHEM_HEAVY_ATOM_COUNT>
26

> <PUBCHEM_ATOM_DEF_STEREO_COUNT>
2

> <PUBCHEM_ATOM_UDEF_STEREO_COUNT>
0

> <PUBCHEM_BOND_DEF_STEREO_COUNT>
0

> <PUBCHEM_BOND_UDEF_STEREO_COUNT>
0

> <PUBCHEM_ISOTOPIC_ATOM_COUNT>
0

> <PUBCHEM_COMPONENT_COUNT>
1

> <PUBCHEM_CACTVS_TAUTO_COUNT>
3

> <PUBCHEM_CONFORMER_ID>
0198143400000001

> <PUBCHEM_MMFF94_ENERGY>
57.6208

> <PUBCHEM_FEATURE_SELFOVERLAP>
45.672

> <PUBCHEM_SHAPE_FINGERPRINT>
10382601 240 18268154338927916800
104564 63 18342183249697717380
10688039 33 18260259729054206436
11086676 242 18342174479600923256
11244481 83 17533791669418455769
11578080 2 14202559372028464500
12422481 6 18200319792678757145
12633257 1 18411425024664223587
13134695 92 18339074999166634517
13140716 1 18196644100070288176
13583140 156 18044661038640746847
13965767 371 17630622110739158931
14790565 3 17832704956455034940
14840074 17 18266451195801717840
15420108 30 17414696963897086772
17349148 13 17845935251328304711
17357779 13 18269532997295989781
17980427 23 15481807121481759617
1813 80 18409738335135157662
20739085 24 18412550937360412046
2132832 1 17343473877588953335
22182313 1 17628635259295128686
23175994 123 18040433283055418147
23419403 2 17771309103327368984
23559900 14 16370725967639538751
24893992 56 17896032167224663605
474 4 18196377137656013527
513202 73 18121783824981463218
513532 50 15336899018678416329
5283268 108 18340496577237633524
539174 4 17985255524655185325
5895379 119 16055782951900363577
5951187 136 13682674914023979755
7064713 232 17346610633959871291
7097593 13 18265894855053859151

> <PUBCHEM_SHAPE_MULTIPOLES>
502.52
8.6
3.59
2.04
4.53
3.14
-0.42
-7.26
-3.91
-2.58
0.62
1.27
-0.13
-0.88

> <PUBCHEM_SHAPE_SELFOVERLAP>
1097.518

> <PUBCHEM_SHAPE_VOLUME>
275

> <PUBCHEM_COORDINATE_TYPE>
2
5
10

$$$$
