71693320
  -OEChem-12032416233D

 55 56  0     1  0  0  0  0  0999 V2000
    2.0436    1.8005    0.7632 O   0  0  0  0  0  0  0  0  0  0  0  0
    2.3740   -0.4513   -2.6995 O   0  0  0  0  0  0  0  0  0  0  0  0
    5.5754    1.7590    0.2961 O   0  0  0  0  0  0  0  0  0  0  0  0
   -4.9554    0.5284   -1.1680 O   0  0  0  0  0  0  0  0  0  0  0  0
    3.9984    0.1607   -0.3298 N   0  0  0  0  0  0  0  0  0  0  0  0
   -3.8279   -0.3915    0.6796 N   0  0  0  0  0  0  0  0  0  0  0  0
   -6.1230   -0.5951    0.4808 N   0  0  0  0  0  0  0  0  0  0  0  0
    2.5797   -0.2723   -0.3258 C   0  0  1  0  0  0  0  0  0  0  0  0
    1.6274    0.9389   -0.2972 C   0  0  1  0  0  0  0  0  0  0  0  0
    5.0206   -0.8372   -0.6328 C   0  0  0  0  0  0  0  0  0  0  0  0
    5.3154   -1.7512    0.5618 C   0  0  0  0  0  0  0  0  0  0  0  0
    2.2434   -1.1957   -1.5056 C   0  0  0  0  0  0  0  0  0  0  0  0
    4.4025    1.4038    0.1612 C   0  0  0  0  0  0  0  0  0  0  0  0
    0.1779    0.5847   -0.0377 C   0  0  0  0  0  0  0  0  0  0  0  0
    3.2902    2.3854    0.4727 C   0  0  0  0  0  0  0  0  0  0  0  0
    5.8122   -0.9218    1.7465 C   0  0  0  0  0  0  0  0  0  0  0  0
    6.3456   -2.8266    0.2092 C   0  0  0  0  0  0  0  0  0  0  0  0
   -0.8082    0.9763   -0.9432 C   0  0  0  0  0  0  0  0  0  0  0  0
   -0.1712   -0.1324    1.1066 C   0  0  0  0  0  0  0  0  0  0  0  0
   -2.1433    0.6510   -0.7045 C   0  0  0  0  0  0  0  0  0  0  0  0
   -1.5064   -0.4576    1.3456 C   0  0  0  0  0  0  0  0  0  0  0  0
   -2.4924   -0.0660    0.4401 C   0  0  0  0  0  0  0  0  0  0  0  0
   -4.9584   -0.0907   -0.1065 C   0  0  0  0  0  0  0  0  0  0  0  0
   -7.4342   -0.4362   -0.1050 C   0  0  0  0  0  0  0  0  0  0  0  0
   -8.0679    0.8678    0.3616 C   0  0  0  0  0  0  0  0  0  0  0  0
   -8.3182   -1.6308    0.2307 C   0  0  0  0  0  0  0  0  0  0  0  0
    2.4766   -0.8456    0.6034 H   0  0  0  0  0  0  0  0  0  0  0  0
    1.6950    1.5047   -1.2368 H   0  0  0  0  0  0  0  0  0  0  0  0
    5.9448   -0.3099   -0.9046 H   0  0  0  0  0  0  0  0  0  0  0  0
    4.7596   -1.4064   -1.5269 H   0  0  0  0  0  0  0  0  0  0  0  0
    4.3936   -2.2624    0.8652 H   0  0  0  0  0  0  0  0  0  0  0  0
    1.2087   -1.5480   -1.4365 H   0  0  0  0  0  0  0  0  0  0  0  0
    2.8677   -2.0913   -1.5516 H   0  0  0  0  0  0  0  0  0  0  0  0
    3.5907    2.9681    1.3496 H   0  0  0  0  0  0  0  0  0  0  0  0
    3.1902    3.0786   -0.3705 H   0  0  0  0  0  0  0  0  0  0  0  0
    5.0332   -0.2645    2.1430 H   0  0  0  0  0  0  0  0  0  0  0  0
    6.1051   -1.5810    2.5720 H   0  0  0  0  0  0  0  0  0  0  0  0
    6.6905   -0.3232    1.4840 H   0  0  0  0  0  0  0  0  0  0  0  0
    7.3018   -2.3795   -0.0828 H   0  0  0  0  0  0  0  0  0  0  0  0
    6.5261   -3.4894    1.0620 H   0  0  0  0  0  0  0  0  0  0  0  0
    5.9905   -3.4420   -0.6242 H   0  0  0  0  0  0  0  0  0  0  0  0
   -0.5503    1.5347   -1.8392 H   0  0  0  0  0  0  0  0  0  0  0  0
    0.5791   -0.4366    1.8309 H   0  0  0  0  0  0  0  0  0  0  0  0
    2.1374   -1.0422   -3.4344 H   0  0  0  0  0  0  0  0  0  0  0  0
   -2.8482    0.9887   -1.4509 H   0  0  0  0  0  0  0  0  0  0  0  0
   -1.7646   -1.0145    2.2429 H   0  0  0  0  0  0  0  0  0  0  0  0
   -4.0063   -0.9153    1.5329 H   0  0  0  0  0  0  0  0  0  0  0  0
   -7.3172   -0.3902   -1.1944 H   0  0  0  0  0  0  0  0  0  0  0  0
   -6.0519   -1.0292    1.3961 H   0  0  0  0  0  0  0  0  0  0  0  0
   -8.1886    0.8830    1.4507 H   0  0  0  0  0  0  0  0  0  0  0  0
   -7.4452    1.7267    0.0884 H   0  0  0  0  0  0  0  0  0  0  0  0
   -9.0540    1.0086   -0.0929 H   0  0  0  0  0  0  0  0  0  0  0  0
   -8.4635   -1.7272    1.3125 H   0  0  0  0  0  0  0  0  0  0  0  0
   -7.8630   -2.5618   -0.1246 H   0  0  0  0  0  0  0  0  0  0  0  0
   -9.3026   -1.5340   -0.2387 H   0  0  0  0  0  0  0  0  0  0  0  0
  1  9  1  0  0  0  0
  1 15  1  0  0  0  0
  2 12  1  0  0  0  0
  2 44  1  0  0  0  0
  3 13  2  0  0  0  0
  4 23  2  0  0  0  0
  5  8  1  0  0  0  0
  5 10  1  0  0  0  0
  5 13  1  0  0  0  0
  6 22  1  0  0  0  0
  6 23  1  0  0  0  0
  6 47  1  0  0  0  0
  7 23  1  0  0  0  0
  7 24  1  0  0  0  0
  7 49  1  0  0  0  0
  8  9  1  0  0  0  0
  8 12  1  0  0  0  0
  8 27  1  0  0  0  0
  9 14  1  0  0  0  0
  9 28  1  0  0  0  0
 10 11  1  0  0  0  0
 10 29  1  0  0  0  0
 10 30  1  0  0  0  0
 11 16  1  0  0  0  0
 11 17  1  0  0  0  0
 11 31  1  0  0  0  0
 12 32  1  0  0  0  0
 12 33  1  0  0  0  0
 13 15  1  0  0  0  0
 14 18  2  0  0  0  0
 14 19  1  0  0  0  0
 15 34  1  0  0  0  0
 15 35  1  0  0  0  0
 16 36  1  0  0  0  0
 16 37  1  0  0  0  0
 16 38  1  0  0  0  0
 17 39  1  0  0  0  0
 17 40  1  0  0  0  0
 17 41  1  0  0  0  0
 18 20  1  0  0  0  0
 18 42  1  0  0  0  0
 19 21  2  0  0  0  0
 19 43  1  0  0  0  0
 20 22  2  0  0  0  0
 20 45  1  0  0  0  0
 21 22  1  0  0  0  0
 21 46  1  0  0  0  0
 24 25  1  0  0  0  0
 24 26  1  0  0  0  0
 24 48  1  0  0  0  0
 25 50  1  0  0  0  0
 25 51  1  0  0  0  0
 25 52  1  0  0  0  0
 26 53  1  0  0  0  0
 26 54  1  0  0  0  0
 26 55  1  0  0  0  0
M  END
> <PUBCHEM_COMPOUND_CID>
71693320

> <PUBCHEM_CONFORMER_RMSD>
1

> <PUBCHEM_CONFORMER_DIVERSEORDER>
1
63
13
59
64
52
56
50
54
51
26
20
21
43
68
34
55
12
42
66
25
33
6
10
44
60
24
61
47
48
36
17
69
30
14
9
18
35
28
45
62
49
46
38
67
40
37
58
23
53
31
11
27
22
39
32
65
57
15
29
5
19
3
41
4
16
7
8
2

> <PUBCHEM_MMFF94_PARTIAL_CHARGES>
28
1 -0.56
10 0.3
12 0.28
13 0.57
14 -0.14
15 0.34
18 -0.15
19 -0.15
2 -0.68
20 -0.15
21 -0.15
22 0.12
23 0.69
24 0.3
3 -0.57
4 -0.57
42 0.15
43 0.15
44 0.4
45 0.15
46 0.15
47 0.37
49 0.37
5 -0.66
6 -0.55
7 -0.73
8 0.3
9 0.42

> <PUBCHEM_EFFECTIVE_ROTOR_COUNT>
9

> <PUBCHEM_PHARMACOPHORE_FEATURES>
11
1 1 acceptor
1 2 acceptor
1 2 donor
1 3 acceptor
1 4 acceptor
1 6 donor
1 7 donor
3 11 16 17 hydrophobe
3 24 25 26 hydrophobe
6 1 5 8 9 13 15 rings
6 14 18 19 20 21 22 rings

> <PUBCHEM_HEAVY_ATOM_COUNT>
26

> <PUBCHEM_ATOM_DEF_STEREO_COUNT>
2

> <PUBCHEM_ATOM_UDEF_STEREO_COUNT>
0

> <PUBCHEM_BOND_DEF_STEREO_COUNT>
0

> <PUBCHEM_BOND_UDEF_STEREO_COUNT>
0

> <PUBCHEM_ISOTOPIC_ATOM_COUNT>
0

> <PUBCHEM_COMPONENT_COUNT>
1

> <PUBCHEM_CACTVS_TAUTO_COUNT>
6

> <PUBCHEM_CONFORMER_ID>
0445F40800000001

> <PUBCHEM_MMFF94_ENERGY>
64.5071

> <PUBCHEM_FEATURE_SELFOVERLAP>
55.87

> <PUBCHEM_SHAPE_FINGERPRINT>
10 15 15482382114565982186
106641 1 18060131038874227346
10670039 82 16226043341453411247
11719270 70 17632297865070018839
11796584 16 17603590720950473026
11991303 11 14490480824373445339
12166972 35 17167865253030059469
12236239 1 16774085076500488389
12616971 3 17703783743495331573
13533116 47 18412823595038348016
13617811 41 15574711383284582134
13685833 64 18335421266255925659
13782708 43 18260827064206166463
13914758 101 18411984625007092289
14251757 52 10663817477288100863
14251764 18 17132112468611889791
14294032 229 16010142078846228653
15183329 4 18410299090481434763
15475509 35 17822838802880109642
15510794 2 18409167745574574843
1979834 28 16988564576722071918
21130935 74 18409731794285165859
21150785 3 14562536162973156402
21267235 1 18343022147674475494
21304304 249 18272374127438491694
21344244 78 17418089893693148128
21781051 124 16154005603112473083
22149856 69 16056338175825148051
22224240 67 12823291287120236813
22956985 138 17270899234319766022
23536379 177 18273217513091402641
23559900 14 17676212385933157852
23569943 247 18042401323107533651
34797466 226 16950286226131100636
4073 2 18116997886602951267
4340502 62 17060339625830238103
465052 167 18342175540890466174
5758199 1 11887956558382312631
58260988 393 15769781204361728130
59755656 215 17240198803053927075
6438161 24 17676760999154260274
8988823 20 18411138048081728796

> <PUBCHEM_SHAPE_MULTIPOLES>
496.65
21.25
1.98
1.36
36.88
0.17
-0.48
8.75
3.1
-3.56
0.27
-1.17
0.22
0.39

> <PUBCHEM_SHAPE_SELFOVERLAP>
1016.853

> <PUBCHEM_SHAPE_VOLUME>
283.8

> <PUBCHEM_COORDINATE_TYPE>
2
5
10

$$$$
