11883403
  -OEChem-12032416373D

 53 56  0     1  0  0  0  0  0999 V2000
    9.5355    2.1836   -0.5060 F   0  0  0  0  0  0  0  0  0  0  0  0
    9.3070    0.0555   -0.8572 F   0  0  0  0  0  0  0  0  0  0  0  0
    8.3770    1.4835   -2.2080 F   0  0  0  0  0  0  0  0  0  0  0  0
   -0.0104   -1.3363   -1.3351 O   0  0  0  0  0  0  0  0  0  0  0  0
   -0.8488   -3.5340    0.6323 O   0  0  0  0  0  0  0  0  0  0  0  0
    2.2435   -1.7718    0.2259 O   0  0  0  0  0  0  0  0  0  0  0  0
   -4.9223   -2.1291    0.0177 O   0  0  0  0  0  0  0  0  0  0  0  0
    2.5456   -0.1103    1.7680 O   0  0  0  0  0  0  0  0  0  0  0  0
   -3.0800   -1.0166   -0.8271 N   0  0  0  0  0  0  0  0  0  0  0  0
   -5.0264    0.1587   -0.4979 N   0  0  0  0  0  0  0  0  0  0  0  0
    4.1723   -0.6046    0.1588 N   0  0  0  0  0  0  0  0  0  0  0  0
   -8.9549    4.5755   -0.3274 N   0  0  0  0  0  0  0  0  0  0  0  0
   -1.3505   -2.1976    0.4214 C   0  0  1  0  0  0  0  0  0  0  0  0
   -0.1545   -1.3259    0.0950 C   0  0  1  0  0  0  0  0  0  0  0  0
   -2.1875   -2.1499   -0.8355 C   0  0  2  0  0  0  0  0  0  0  0  0
    0.9774   -2.0563    0.7768 C   0  0  1  0  0  0  0  0  0  0  0  0
   -1.1326   -2.0148   -1.9201 C   0  0  0  0  0  0  0  0  0  0  0  0
    0.5852   -3.5038    0.5842 C   0  0  0  0  0  0  0  0  0  0  0  0
   -4.4091   -1.0908   -0.3921 C   0  0  0  0  0  0  0  0  0  0  0  0
    2.9644   -0.7524    0.8127 C   0  0  0  0  0  0  0  0  0  0  0  0
   -6.3572    0.5005   -0.1622 C   0  0  0  0  0  0  0  0  0  0  0  0
    5.2051    0.3195    0.4368 C   0  0  0  0  0  0  0  0  0  0  0  0
   -6.8068    1.8094   -0.3361 C   0  0  0  0  0  0  0  0  0  0  0  0
   -7.2203   -0.4720    0.3429 C   0  0  0  0  0  0  0  0  0  0  0  0
    6.3658    0.3231   -0.3368 C   0  0  0  0  0  0  0  0  0  0  0  0
    5.0631    1.2283    1.4854 C   0  0  0  0  0  0  0  0  0  0  0  0
    7.3845    1.2353   -0.0616 C   0  0  0  0  0  0  0  0  0  0  0  0
   -8.1193    2.1458   -0.0050 C   0  0  0  0  0  0  0  0  0  0  0  0
   -8.5329   -0.1356    0.6740 C   0  0  0  0  0  0  0  0  0  0  0  0
    6.0818    2.1405    1.7606 C   0  0  0  0  0  0  0  0  0  0  0  0
    7.2424    2.1440    0.9870 C   0  0  0  0  0  0  0  0  0  0  0  0
   -8.9823    1.1734    0.5000 C   0  0  0  0  0  0  0  0  0  0  0  0
    8.6255    1.2390   -0.8883 C   0  0  0  0  0  0  0  0  0  0  0  0
   -8.5804    3.4866   -0.1829 C   0  0  0  0  0  0  0  0  0  0  0  0
   -1.8742   -1.8918    1.3326 H   0  0  0  0  0  0  0  0  0  0  0  0
   -0.2600   -0.2841    0.4109 H   0  0  0  0  0  0  0  0  0  0  0  0
   -2.7771   -3.0606   -0.9865 H   0  0  0  0  0  0  0  0  0  0  0  0
    0.9460   -1.8516    1.8559 H   0  0  0  0  0  0  0  0  0  0  0  0
   -1.4722   -1.4615   -2.8011 H   0  0  0  0  0  0  0  0  0  0  0  0
   -0.7794   -2.9991   -2.2467 H   0  0  0  0  0  0  0  0  0  0  0  0
    0.9152   -3.8994   -0.3830 H   0  0  0  0  0  0  0  0  0  0  0  0
    0.9926   -4.1530    1.3651 H   0  0  0  0  0  0  0  0  0  0  0  0
   -2.7094   -0.1077   -1.0880 H   0  0  0  0  0  0  0  0  0  0  0  0
   -4.4574    0.9196   -0.8604 H   0  0  0  0  0  0  0  0  0  0  0  0
    4.3426   -1.2370   -0.6193 H   0  0  0  0  0  0  0  0  0  0  0  0
   -6.1318    2.5667   -0.7304 H   0  0  0  0  0  0  0  0  0  0  0  0
   -6.9466   -1.5047    0.5059 H   0  0  0  0  0  0  0  0  0  0  0  0
    6.4801   -0.3841   -1.1553 H   0  0  0  0  0  0  0  0  0  0  0  0
    4.1945    1.2850    2.1265 H   0  0  0  0  0  0  0  0  0  0  0  0
    5.9722    2.8486    2.5769 H   0  0  0  0  0  0  0  0  0  0  0  0
   -9.2059   -0.8920    1.0675 H   0  0  0  0  0  0  0  0  0  0  0  0
    8.0247    2.8622    1.2168 H   0  0  0  0  0  0  0  0  0  0  0  0
  -10.0083    1.4201    0.7627 H   0  0  0  0  0  0  0  0  0  0  0  0
  1 33  1  0  0  0  0
  2 33  1  0  0  0  0
  3 33  1  0  0  0  0
  4 14  1  0  0  0  0
  4 17  1  0  0  0  0
  5 13  1  0  0  0  0
  5 18  1  0  0  0  0
  6 16  1  0  0  0  0
  6 20  1  0  0  0  0
  7 19  2  0  0  0  0
  8 20  2  0  0  0  0
  9 15  1  0  0  0  0
  9 19  1  0  0  0  0
  9 43  1  0  0  0  0
 10 19  1  0  0  0  0
 10 21  1  0  0  0  0
 10 44  1  0  0  0  0
 11 20  1  0  0  0  0
 11 22  1  0  0  0  0
 11 45  1  0  0  0  0
 12 34  3  0  0  0  0
 13 14  1  0  0  0  0
 13 15  1  0  0  0  0
 13 35  1  0  0  0  0
 14 16  1  0  0  0  0
 14 36  1  0  0  0  0
 15 17  1  0  0  0  0
 15 37  1  0  0  0  0
 16 18  1  0  0  0  0
 16 38  1  0  0  0  0
 17 39  1  0  0  0  0
 17 40  1  0  0  0  0
 18 41  1  0  0  0  0
 18 42  1  0  0  0  0
 21 23  1  0  0  0  0
 21 24  2  0  0  0  0
 22 25  1  0  0  0  0
 22 26  2  0  0  0  0
 23 28  2  0  0  0  0
 23 46  1  0  0  0  0
 24 29  1  0  0  0  0
 24 47  1  0  0  0  0
 25 27  2  0  0  0  0
 25 48  1  0  0  0  0
 26 30  1  0  0  0  0
 26 49  1  0  0  0  0
 27 31  1  0  0  0  0
 27 33  1  0  0  0  0
 28 32  1  0  0  0  0
 28 34  1  0  0  0  0
 29 32  2  0  0  0  0
 29 51  1  0  0  0  0
 30 31  2  0  0  0  0
 30 50  1  0  0  0  0
 31 52  1  0  0  0  0
 32 53  1  0  0  0  0
M  END
> <PUBCHEM_COMPOUND_CID>
11883403

> <PUBCHEM_CONFORMER_RMSD>
1.4

> <PUBCHEM_CONFORMER_DIVERSEORDER>
1
87
130
41
107
118
85
37
109
143
78
119
138
53
74
127
92
96
98
132
81
35
30
122
129
21
51
57
71
73
64
32
126
108
142
120
83
103
70
95
10
124
65
24
60
84
136
49
40
99
90
14
48
101
135
97
144
61
29
72
36
102
86
20
94
121
141
106
67
54
23
116
137
45
59
110
125
52
39
89
123
27
80
114
25
111
56
115
134
104
68
88
55
131
76
16
140
58
63
91
113
38
105
22
139
34
31
62
3
50
117
112
46
100
18
43
128
93
133
19
82
47
42
79
77
66
75
4
17
9
6
26
44
69
33
7
28
13
12
15
11
8
2
5

> <PUBCHEM_MMFF94_PARTIAL_CHARGES>
45
1 -0.34
10 -0.55
11 -0.55
12 -0.56
13 0.28
14 0.28
15 0.3
16 0.28
17 0.28
18 0.28
19 0.69
2 -0.34
20 0.78
21 0.12
22 0.12
23 -0.15
24 -0.15
25 -0.15
26 -0.15
27 -0.14
28 0.07
29 -0.15
3 -0.34
30 -0.15
31 -0.15
32 -0.15
33 1.16
34 0.48
4 -0.56
43 0.37
44 0.37
45 0.37
46 0.15
47 0.15
48 0.15
49 0.15
5 -0.56
50 0.15
51 0.15
52 0.15
53 0.15
6 -0.43
7 -0.57
8 -0.57
9 -0.73

> <PUBCHEM_EFFECTIVE_ROTOR_COUNT>
10.2

> <PUBCHEM_PHARMACOPHORE_FEATURES>
12
1 10 donor
1 11 donor
1 12 acceptor
1 4 acceptor
1 5 acceptor
1 7 acceptor
1 8 acceptor
1 9 donor
5 4 13 14 15 17 rings
5 5 13 14 16 18 rings
6 21 23 24 28 29 32 rings
6 22 25 26 27 30 31 rings

> <PUBCHEM_HEAVY_ATOM_COUNT>
34

> <PUBCHEM_ATOM_DEF_STEREO_COUNT>
4

> <PUBCHEM_ATOM_UDEF_STEREO_COUNT>
0

> <PUBCHEM_BOND_DEF_STEREO_COUNT>
0

> <PUBCHEM_BOND_UDEF_STEREO_COUNT>
0

> <PUBCHEM_ISOTOPIC_ATOM_COUNT>
0

> <PUBCHEM_COMPONENT_COUNT>
1

> <PUBCHEM_CACTVS_TAUTO_COUNT>
6

> <PUBCHEM_CONFORMER_ID>
00B5538B00000001

> <PUBCHEM_MMFF94_ENERGY>
88.2115

> <PUBCHEM_FEATURE_SELFOVERLAP>
61.667

> <PUBCHEM_SHAPE_FINGERPRINT>
10 15 18186799176129290731
10190206 1 17703797985643815329
10280341 67 18129923646784266697
10369192 42 18343016697313582543
10674148 151 18342452682308394504
10883706 17 10159683721215434357
11409948 41 15625678115952167356
11621639 179 18201435853232379220
11973864 220 18341622520343582904
1200032 147 18260261950053692738
12013929 112 18201446870129117876
12098696 120 18060698407388718680
12120059 9 12391217306391158990
12133447 93 18412832386478200572
12202916 173 9727635020426489668
12522641 68 18272930531862092031
12539765 74 18343865493724674822
12838863 1 9583515417245371445
13974486 7 9799398997599655469
14040221 97 18335136437395814133
14201967 126 18335421283168069125
14359421 15 11743834747420323773
14664723 55 18272938240615744369
14747281 78 18411990131287554078
14919807 6 18343592828547736212
14931854 50 17561080302421266713
15183329 4 16702026400268250882
15347590 135 15719385122892977153
15350500 16 11312060941722296946
15350500 55 18337384955943700709
15706992 2 18409740573161252403
1577012 14 18412535531170861395
16992610 120 18334304184444690358
16994733 274 18334570235977238689
18738133 361 18408889524891832677
19303781 99 8502360110936763729
20105231 36 11599711923583127245
2026 5 9727637215671697221
20505436 4 18411130350931771951
20609170 45 18126010369875989206
20721686 146 18341331098632850477
21095123 293 18334577962022783436
212700 22 8070033263601984089
21360443 89 9727638285481849356
21585482 111 18337951195589298405
22002106 203 11026095594364415601
23528940 14 10375606872015747316
23576562 1 17273398681841443245
23729398 52 18120372065047655522
24203241 11 11675466061399466721
24771293 8 18333167276293964599
25242607 90 8790879679562071973
25269216 80 17131536341968096895
2851757 41 8862943909167093481
3711267 37 18337118937758314012
3918712 181 18342448227810708497
3986486 107 17989205967113096772
406291 66 9295281760060177957
4169191 19 18339073806009816429
44575985 210 12822201628797506940
44802255 64 17775566464454526951
44880568 143 18126562564893086184
4516262 110 18335973183003340751
474113 269 14261366721934338308
5718773 13 8934997092710730763
5758199 1 18261108586828703907
59682541 35 13479130211632770764
6201320 221 15122964889725836916
6698420 124 18334009532287081330
9689198 14 18342176674345178595
9962374 69 7997678779907294114
9980921 7 18186793662066594477

> <PUBCHEM_SHAPE_MULTIPOLES>
628.61
35.49
4.07
1.33
1.87
0.99
-0.19
43.2
-4.07
-6.12
0.09
2.34
0.07
0.37

> <PUBCHEM_SHAPE_SELFOVERLAP>
1363.558

> <PUBCHEM_SHAPE_VOLUME>
342.8

> <PUBCHEM_COORDINATE_TYPE>
2
5
10

$$$$
