11941442
  -OEChem-12032416363D

 57 60  0     1  0  0  0  0  0999 V2000
   -6.7080    3.6803   -0.1419 S   0  0  0  0  0  0  0  0  0  0  0  0
   -3.4399   -3.1341    1.0018 O   0  0  0  0  0  0  0  0  0  0  0  0
   -0.4580   -0.6789   -2.5814 O   0  0  0  0  0  0  0  0  0  0  0  0
   -6.5327    0.8329    1.0958 O   0  0  0  0  0  0  0  0  0  0  0  0
    3.1740    1.5805    1.6343 O   0  0  0  0  0  0  0  0  0  0  0  0
    7.4239    1.6971   -0.5076 O   0  0  0  0  0  0  0  0  0  0  0  0
   -2.1836   -0.9089   -1.0785 N   0  0  0  0  0  0  0  0  0  0  0  0
   -4.3330    0.8732    0.3464 N   0  0  0  0  0  0  0  0  0  0  0  0
   -1.1905   -2.7785    0.9645 N   0  0  0  0  0  0  0  0  0  0  0  0
   -4.1720   -0.5494    0.1503 C   0  0  2  0  0  0  0  0  0  0  0  0
   -2.6978   -0.9574    0.2775 C   0  0  1  0  0  0  0  0  0  0  0  0
   -4.5319   -0.9549   -1.2804 C   0  0  0  0  0  0  0  0  0  0  0  0
   -3.2461   -0.7007   -2.0516 C   0  0  0  0  0  0  0  0  0  0  0  0
   -2.4943   -2.3882    0.7402 C   0  0  0  0  0  0  0  0  0  0  0  0
   -0.8519   -0.8847   -1.4335 C   0  0  0  0  0  0  0  0  0  0  0  0
    0.1592   -1.1456   -0.3760 C   0  0  0  0  0  0  0  0  0  0  0  0
    0.0005   -2.0858    0.6563 C   0  0  0  0  0  0  0  0  0  0  0  0
   -5.5074    1.4470    0.8055 C   0  0  0  0  0  0  0  0  0  0  0  0
    1.4042   -0.5143   -0.5508 C   0  0  0  0  0  0  0  0  0  0  0  0
    1.1146   -2.4188    1.4467 C   0  0  0  0  0  0  0  0  0  0  0  0
    2.4849   -0.8230    0.2738 C   0  0  0  0  0  0  0  0  0  0  0  0
   -5.4272    2.9520    0.9074 C   0  0  0  0  0  0  0  0  0  0  0  0
    2.3437   -1.7853    1.2653 C   0  0  0  0  0  0  0  0  0  0  0  0
    3.7566   -0.1604    0.0824 C   0  0  0  0  0  0  0  0  0  0  0  0
    4.0623    1.0180    0.7660 C   0  0  0  0  0  0  0  0  0  0  0  0
    4.6871   -0.7127   -0.7997 C   0  0  0  0  0  0  0  0  0  0  0  0
    5.2940    1.6420    0.5678 C   0  0  0  0  0  0  0  0  0  0  0  0
    5.9187   -0.0889   -0.9978 C   0  0  0  0  0  0  0  0  0  0  0  0
   -6.1753    2.9981   -1.7296 C   0  0  0  0  0  0  0  0  0  0  0  0
    6.2222    1.0885   -0.3141 C   0  0  0  0  0  0  0  0  0  0  0  0
    3.5778    2.7836    2.2839 C   0  0  0  0  0  0  0  0  0  0  0  0
    8.3259    1.0773   -1.4232 C   0  0  0  0  0  0  0  0  0  0  0  0
   -4.8188   -1.0600    0.8717 H   0  0  0  0  0  0  0  0  0  0  0  0
   -2.1355   -0.2828    0.9343 H   0  0  0  0  0  0  0  0  0  0  0  0
   -4.7668   -2.0260   -1.3103 H   0  0  0  0  0  0  0  0  0  0  0  0
   -5.3824   -0.4106   -1.7008 H   0  0  0  0  0  0  0  0  0  0  0  0
   -3.1839    0.3358   -2.4017 H   0  0  0  0  0  0  0  0  0  0  0  0
   -3.1183   -1.3684   -2.9088 H   0  0  0  0  0  0  0  0  0  0  0  0
   -3.5625    1.4767    0.0739 H   0  0  0  0  0  0  0  0  0  0  0  0
   -1.0784   -3.6404    1.4934 H   0  0  0  0  0  0  0  0  0  0  0  0
    1.5370    0.2166   -1.3477 H   0  0  0  0  0  0  0  0  0  0  0  0
    1.0272   -3.1625    2.2368 H   0  0  0  0  0  0  0  0  0  0  0  0
   -5.6049    3.2357    1.9492 H   0  0  0  0  0  0  0  0  0  0  0  0
   -4.4466    3.3397    0.6172 H   0  0  0  0  0  0  0  0  0  0  0  0
    3.1772   -2.0542    1.9097 H   0  0  0  0  0  0  0  0  0  0  0  0
    4.4670   -1.6302   -1.3411 H   0  0  0  0  0  0  0  0  0  0  0  0
    5.5966    2.5575    1.0646 H   0  0  0  0  0  0  0  0  0  0  0  0
    6.5927   -0.5724   -1.6966 H   0  0  0  0  0  0  0  0  0  0  0  0
   -6.7405    3.4841   -2.5298 H   0  0  0  0  0  0  0  0  0  0  0  0
   -6.3752    1.9254   -1.7814 H   0  0  0  0  0  0  0  0  0  0  0  0
   -5.1120    3.1887   -1.8979 H   0  0  0  0  0  0  0  0  0  0  0  0
    3.7324    3.5984    1.5683 H   0  0  0  0  0  0  0  0  0  0  0  0
    4.4465    2.6225    2.9316 H   0  0  0  0  0  0  0  0  0  0  0  0
    2.7520    3.0890    2.9352 H   0  0  0  0  0  0  0  0  0  0  0  0
    8.6297    0.0832   -1.0781 H   0  0  0  0  0  0  0  0  0  0  0  0
    7.9173    1.0573   -2.4392 H   0  0  0  0  0  0  0  0  0  0  0  0
    9.2297    1.6947   -1.4544 H   0  0  0  0  0  0  0  0  0  0  0  0
  1 22  1  0  0  0  0
  1 29  1  0  0  0  0
  2 14  2  0  0  0  0
  3 15  2  0  0  0  0
  4 18  2  0  0  0  0
  5 25  1  0  0  0  0
  5 31  1  0  0  0  0
  6 30  1  0  0  0  0
  6 32  1  0  0  0  0
  7 11  1  0  0  0  0
  7 13  1  0  0  0  0
  7 15  1  0  0  0  0
  8 10  1  0  0  0  0
  8 18  1  0  0  0  0
  8 39  1  0  0  0  0
  9 14  1  0  0  0  0
  9 17  1  0  0  0  0
  9 40  1  0  0  0  0
 10 11  1  0  0  0  0
 10 12  1  0  0  0  0
 10 33  1  0  0  0  0
 11 14  1  0  0  0  0
 11 34  1  0  0  0  0
 12 13  1  0  0  0  0
 12 35  1  0  0  0  0
 12 36  1  0  0  0  0
 13 37  1  0  0  0  0
 13 38  1  0  0  0  0
 15 16  1  0  0  0  0
 16 17  2  0  0  0  0
 16 19  1  0  0  0  0
 17 20  1  0  0  0  0
 18 22  1  0  0  0  0
 19 21  2  0  0  0  0
 19 41  1  0  0  0  0
 20 23  2  0  0  0  0
 20 42  1  0  0  0  0
 21 23  1  0  0  0  0
 21 24  1  0  0  0  0
 22 43  1  0  0  0  0
 22 44  1  0  0  0  0
 23 45  1  0  0  0  0
 24 25  2  0  0  0  0
 24 26  1  0  0  0  0
 25 27  1  0  0  0  0
 26 28  2  0  0  0  0
 26 46  1  0  0  0  0
 27 30  2  0  0  0  0
 27 47  1  0  0  0  0
 28 30  1  0  0  0  0
 28 48  1  0  0  0  0
 29 49  1  0  0  0  0
 29 50  1  0  0  0  0
 29 51  1  0  0  0  0
 31 52  1  0  0  0  0
 31 53  1  0  0  0  0
 31 54  1  0  0  0  0
 32 55  1  0  0  0  0
 32 56  1  0  0  0  0
 32 57  1  0  0  0  0
M  END
> <PUBCHEM_COMPOUND_CID>
11941442

> <PUBCHEM_CONFORMER_RMSD>
1

> <PUBCHEM_CONFORMER_DIVERSEORDER>
1
17
15
21
18
6
22
8
14
5
23
10
3
13
19
20
12
4
24
7
2
9
11
16

> <PUBCHEM_MMFF94_PARTIAL_CHARGES>
37
1 -0.46
10 0.3
11 0.36
13 0.3
14 0.57
15 0.54
16 0.09
17 0.12
18 0.57
19 -0.15
2 -0.57
20 -0.15
22 0.29
23 -0.15
25 0.08
26 -0.15
27 -0.15
28 -0.15
29 0.23
3 -0.57
30 0.08
31 0.28
32 0.28
39 0.37
4 -0.57
40 0.37
41 0.15
42 0.15
45 0.15
46 0.15
47 0.15
48 0.15
5 -0.36
6 -0.36
7 -0.66
8 -0.73
9 -0.55

> <PUBCHEM_EFFECTIVE_ROTOR_COUNT>
7.8

> <PUBCHEM_PHARMACOPHORE_FEATURES>
12
1 2 acceptor
1 29 hydrophobe
1 3 acceptor
1 4 acceptor
1 5 acceptor
1 6 acceptor
1 8 donor
1 9 donor
5 7 10 11 12 13 rings
6 16 17 19 20 21 23 rings
6 24 25 26 27 28 30 rings
7 7 9 11 14 15 16 17 rings

> <PUBCHEM_HEAVY_ATOM_COUNT>
32

> <PUBCHEM_ATOM_DEF_STEREO_COUNT>
2

> <PUBCHEM_ATOM_UDEF_STEREO_COUNT>
0

> <PUBCHEM_BOND_DEF_STEREO_COUNT>
0

> <PUBCHEM_BOND_UDEF_STEREO_COUNT>
0

> <PUBCHEM_ISOTOPIC_ATOM_COUNT>
0

> <PUBCHEM_COMPONENT_COUNT>
1

> <PUBCHEM_CACTVS_TAUTO_COUNT>
6

> <PUBCHEM_CONFORMER_ID>
00B6364200000001

> <PUBCHEM_MMFF94_ENERGY>
126.0133

> <PUBCHEM_FEATURE_SELFOVERLAP>
60.956

> <PUBCHEM_SHAPE_FINGERPRINT>
10 15 16588020234080096838
10006869 2 18121490268108345981
10674148 151 18412546527442154088
12047536 79 16010138784374196229
12166972 35 15769500941071884882
12390115 104 18187364376165825874
12422481 6 16806168723241731127
13540713 4 14475808966333800535
13782708 43 8862950463776972852
13944108 23 18053102817723935473
14904525 67 18266459983215771260
14951699 99 18187930508959077981
15183329 4 16845300436347384994
15238133 3 18270667689317489610
20691028 202 18334858264932351677
20775438 99 10588608640434067685
21033648 29 18200306753653801794
21133410 62 18267880397761928425
21223535 225 18201429286116925488
21424621 283 18408609149541312778
21623969 137 12613027310653896376
21756936 100 18411701006403876495
23522609 53 17386585673127556484
23559900 14 18335701711026229542
23569914 2 17556819737576756312
25025965 108 11743021053065734084
2838139 119 18201716288267666048
3004659 81 15913332433741633230
3472631 163 18200869562142346645
354706 132 18335143102345806436
397830 11 10737571687093683014
44802255 64 17561086925113293751
508180 173 17775005721802435824
5104073 3 16950834808833458139
5718773 13 10231754470606009188
57527295 17 18341606071214151818
636775 72 18338517546977528568
6703917 75 17969514864985139282
7288768 16 18040158388322196083
7970288 3 9078239251717680921
9896288 288 18114754848808328867

> <PUBCHEM_SHAPE_MULTIPOLES>
618.1
19.59
3.71
1.85
8.49
1.39
-0.37
21.08
-3.95
-5.1
1.39
-0.03
0.25
0.53

> <PUBCHEM_SHAPE_SELFOVERLAP>
1326.228

> <PUBCHEM_SHAPE_VOLUME>
344.6

> <PUBCHEM_COORDINATE_TYPE>
2
5
10

$$$$
