75367034
  -OEChem-12032416383D

 63 66  0     1  0  0  0  0  0999 V2000
    2.6912   -1.4079    0.6370 O   0  0  0  0  0  0  0  0  0  0  0  0
    5.2343   -2.2600    1.8595 O   0  0  0  0  0  0  0  0  0  0  0  0
   -1.4394   -0.8532   -1.2399 O   0  0  0  0  0  0  0  0  0  0  0  0
   -0.0345    1.8526   -1.6745 O   0  0  0  0  0  0  0  0  0  0  0  0
   -3.9606   -0.8977    0.2603 N   0  0  0  0  0  0  0  0  0  0  0  0
    2.4451    1.4178    0.3658 N   0  0  0  0  0  0  0  0  0  0  0  0
   -0.3091   -1.4924   -1.7346 N   0  0  0  0  0  0  0  0  0  0  0  0
    2.7593   -2.0020   -0.6617 C   0  0  1  0  0  0  0  0  0  0  0  0
    3.7878   -0.5475    0.9722 C   0  0  1  0  0  0  0  0  0  0  0  0
    5.1315   -1.2739    0.8289 C   0  0  2  0  0  0  0  0  0  0  0  0
    4.0316   -2.8353   -0.8071 C   0  0  0  0  0  0  0  0  0  0  0  0
    5.2662   -1.9877   -0.5134 C   0  0  0  0  0  0  0  0  0  0  0  0
    1.5192   -2.8706   -0.8339 C   0  0  0  0  0  0  0  0  0  0  0  0
    3.7270    0.7560    0.1789 C   0  0  0  0  0  0  0  0  0  0  0  0
   -4.2758   -2.2511    0.7388 C   0  0  0  0  0  0  0  0  0  0  0  0
   -5.0177    0.0551    0.6273 C   0  0  0  0  0  0  0  0  0  0  0  0
   -5.6008   -2.7469    0.1581 C   0  0  0  0  0  0  0  0  0  0  0  0
   -6.3671   -0.3655    0.0426 C   0  0  0  0  0  0  0  0  0  0  0  0
   -6.7388   -1.7811    0.4686 C   0  0  0  0  0  0  0  0  0  0  0  0
    0.2529   -2.0733   -0.6708 C   0  0  0  0  0  0  0  0  0  0  0  0
   -2.6692   -0.4568    0.7867 C   0  0  0  0  0  0  0  0  0  0  0  0
   -1.5250   -1.0660    0.0982 C   0  0  0  0  0  0  0  0  0  0  0  0
   -0.4710   -1.8375    0.5106 C   0  0  0  0  0  0  0  0  0  0  0  0
    2.3878    2.6674   -0.3818 C   0  0  0  0  0  0  0  0  0  0  0  0
    1.0728    3.3753   -0.1906 C   0  0  0  0  0  0  0  0  0  0  0  0
   -0.0764    2.9338   -0.8464 C   0  0  0  0  0  0  0  0  0  0  0  0
    1.0117    4.4843    0.6532 C   0  0  0  0  0  0  0  0  0  0  0  0
   -1.2866    3.6014   -0.6584 C   0  0  0  0  0  0  0  0  0  0  0  0
   -0.1986    5.1520    0.8411 C   0  0  0  0  0  0  0  0  0  0  0  0
   -1.3477    4.7105    0.1853 C   0  0  0  0  0  0  0  0  0  0  0  0
    2.7405   -1.2122   -1.4222 H   0  0  0  0  0  0  0  0  0  0  0  0
    3.6470   -0.3075    2.0343 H   0  0  0  0  0  0  0  0  0  0  0  0
    5.9613   -0.5734    0.9741 H   0  0  0  0  0  0  0  0  0  0  0  0
    4.1011   -3.2579   -1.8158 H   0  0  0  0  0  0  0  0  0  0  0  0
    4.0078   -3.6764   -0.1027 H   0  0  0  0  0  0  0  0  0  0  0  0
    6.1511   -2.6348   -0.5185 H   0  0  0  0  0  0  0  0  0  0  0  0
    5.3980   -1.2507   -1.3140 H   0  0  0  0  0  0  0  0  0  0  0  0
    1.5127   -3.6699   -0.0811 H   0  0  0  0  0  0  0  0  0  0  0  0
    1.5265   -3.3563   -1.8175 H   0  0  0  0  0  0  0  0  0  0  0  0
    3.8911    0.5713   -0.8882 H   0  0  0  0  0  0  0  0  0  0  0  0
    4.5366    1.4123    0.5215 H   0  0  0  0  0  0  0  0  0  0  0  0
   -3.4957   -2.9584    0.4334 H   0  0  0  0  0  0  0  0  0  0  0  0
   -4.3267   -2.2771    1.8356 H   0  0  0  0  0  0  0  0  0  0  0  0
   -5.0999    0.1452    1.7186 H   0  0  0  0  0  0  0  0  0  0  0  0
   -4.7769    1.0506    0.2346 H   0  0  0  0  0  0  0  0  0  0  0  0
   -5.8359   -3.7371    0.5645 H   0  0  0  0  0  0  0  0  0  0  0  0
   -5.5052   -2.8618   -0.9292 H   0  0  0  0  0  0  0  0  0  0  0  0
   -7.1455    0.3344    0.3670 H   0  0  0  0  0  0  0  0  0  0  0  0
   -6.3254   -0.3124   -1.0528 H   0  0  0  0  0  0  0  0  0  0  0  0
   -6.9485   -1.7964    1.5452 H   0  0  0  0  0  0  0  0  0  0  0  0
   -7.6535   -2.1003   -0.0427 H   0  0  0  0  0  0  0  0  0  0  0  0
   -2.6040   -0.6220    1.8703 H   0  0  0  0  0  0  0  0  0  0  0  0
   -2.5654    0.6282    0.6457 H   0  0  0  0  0  0  0  0  0  0  0  0
    1.6976    0.7960    0.0575 H   0  0  0  0  0  0  0  0  0  0  0  0
    6.1099   -2.6760    1.7818 H   0  0  0  0  0  0  0  0  0  0  0  0
   -0.2600   -2.1774    1.5138 H   0  0  0  0  0  0  0  0  0  0  0  0
    2.5406    2.4890   -1.4544 H   0  0  0  0  0  0  0  0  0  0  0  0
    3.2043    3.3294   -0.0654 H   0  0  0  0  0  0  0  0  0  0  0  0
    1.8975    4.8395    1.1731 H   0  0  0  0  0  0  0  0  0  0  0  0
   -2.1899    3.2673   -1.1619 H   0  0  0  0  0  0  0  0  0  0  0  0
   -0.2464    6.0151    1.4986 H   0  0  0  0  0  0  0  0  0  0  0  0
   -2.2901    5.2299    0.3322 H   0  0  0  0  0  0  0  0  0  0  0  0
   -0.9259    1.6875   -2.0269 H   0  0  0  0  0  0  0  0  0  0  0  0
  1  8  1  0  0  0  0
  1  9  1  0  0  0  0
  2 10  1  0  0  0  0
  2 55  1  0  0  0  0
  3  7  1  0  0  0  0
  3 22  1  0  0  0  0
  4 26  1  0  0  0  0
  4 63  1  0  0  0  0
  5 15  1  0  0  0  0
  5 16  1  0  0  0  0
  5 21  1  0  0  0  0
  6 14  1  0  0  0  0
  6 24  1  0  0  0  0
  6 54  1  0  0  0  0
  7 20  2  0  0  0  0
  8 11  1  0  0  0  0
  8 13  1  0  0  0  0
  8 31  1  0  0  0  0
  9 10  1  0  0  0  0
  9 14  1  0  0  0  0
  9 32  1  0  0  0  0
 10 12  1  0  0  0  0
 10 33  1  0  0  0  0
 11 12  1  0  0  0  0
 11 34  1  0  0  0  0
 11 35  1  0  0  0  0
 12 36  1  0  0  0  0
 12 37  1  0  0  0  0
 13 20  1  0  0  0  0
 13 38  1  0  0  0  0
 13 39  1  0  0  0  0
 14 40  1  0  0  0  0
 14 41  1  0  0  0  0
 15 17  1  0  0  0  0
 15 42  1  0  0  0  0
 15 43  1  0  0  0  0
 16 18  1  0  0  0  0
 16 44  1  0  0  0  0
 16 45  1  0  0  0  0
 17 19  1  0  0  0  0
 17 46  1  0  0  0  0
 17 47  1  0  0  0  0
 18 19  1  0  0  0  0
 18 48  1  0  0  0  0
 18 49  1  0  0  0  0
 19 50  1  0  0  0  0
 19 51  1  0  0  0  0
 20 23  1  0  0  0  0
 21 22  1  0  0  0  0
 21 52  1  0  0  0  0
 21 53  1  0  0  0  0
 22 23  2  0  0  0  0
 23 56  1  0  0  0  0
 24 25  1  0  0  0  0
 24 57  1  0  0  0  0
 24 58  1  0  0  0  0
 25 26  1  0  0  0  0
 25 27  2  0  0  0  0
 26 28  2  0  0  0  0
 27 29  1  0  0  0  0
 27 59  1  0  0  0  0
 28 30  1  0  0  0  0
 28 60  1  0  0  0  0
 29 30  2  0  0  0  0
 29 61  1  0  0  0  0
 30 62  1  0  0  0  0
M  END
> <PUBCHEM_COMPOUND_CID>
75367034

> <PUBCHEM_CONFORMER_RMSD>
1.2

> <PUBCHEM_CONFORMER_DIVERSEORDER>
1
134
97
190
164
85
152
12
141
181
70
69
2
102
197
86
37
136
182
33
8
171
188
54
192
200
130
151
45
32
172
168
73
179
83
81
193
30
158
144
114
201
131
154
28
116
10
39
118
123
127
68
170
132
43
35
89
71
101
49
106
76
103
203
196
105
204
174
88
110
150
176
120
180
133
125
62
178
177
75
50
16
149
189
40
52
167
166
153
165
84
27
163
145
44
72
157
98
117
104
173
202
162
64
92
7
183
29
56
48
124
160
175
4
14
78
159
42
6
9
57
53
156
65
18
122
15
55
198
79
191
128
60
109
126
142
24
93
66
47
185
108
147
135
146
59
23
67
94
121
169
187
100
138
19
195
194
90
148
20
113
119
87
82
77
186
184
143
199
36
58
31
91
34
137
3
115
140
17
46
99
112
139
96
80
26
155
51
63
161
74
107
61
22
95
13
21
111
41
129
25
38
11
5

> <PUBCHEM_MMFF94_PARTIAL_CHARGES>
33
1 -0.56
10 0.28
13 0.18
14 0.27
15 0.27
16 0.27
2 -0.68
20 0.11
21 0.45
22 -0.04
23 -0.15
24 0.41
25 -0.14
26 0.08
27 -0.15
28 -0.15
29 -0.15
3 -0.02
30 -0.15
4 -0.53
5 -0.81
54 0.36
55 0.4
56 0.15
59 0.15
6 -0.9
60 0.15
61 0.15
62 0.15
63 0.45
7 -0.41
8 0.28
9 0.28

> <PUBCHEM_EFFECTIVE_ROTOR_COUNT>
10.4

> <PUBCHEM_PHARMACOPHORE_FEATURES>
12
1 1 acceptor
1 2 acceptor
1 2 donor
1 4 donor
1 5 cation
1 6 cation
1 6 donor
1 7 acceptor
5 3 7 20 22 23 rings
6 1 8 9 10 11 12 rings
6 25 26 27 28 29 30 rings
6 5 15 16 17 18 19 rings

> <PUBCHEM_HEAVY_ATOM_COUNT>
30

> <PUBCHEM_ATOM_DEF_STEREO_COUNT>
3

> <PUBCHEM_ATOM_UDEF_STEREO_COUNT>
0

> <PUBCHEM_BOND_DEF_STEREO_COUNT>
0

> <PUBCHEM_BOND_UDEF_STEREO_COUNT>
0

> <PUBCHEM_ISOTOPIC_ATOM_COUNT>
0

> <PUBCHEM_COMPONENT_COUNT>
1

> <PUBCHEM_CACTVS_TAUTO_COUNT>
3

> <PUBCHEM_CONFORMER_ID>
047E027A00000001

> <PUBCHEM_MMFF94_ENERGY>
43.2037

> <PUBCHEM_FEATURE_SELFOVERLAP>
60.898

> <PUBCHEM_SHAPE_FINGERPRINT>
10006869 2 17760358899817560615
10688039 33 18260829267809037548
10937287 8 17330838435585198457
12156800 1 17908175116873297956
12166972 35 18272656787625196419
12422481 6 18128269899796882825
12788726 201 18262247625235268058
13785724 45 18341344339505106135
14295345 954 17977661244875819282
14363568 33 18266466584352924108
14955137 171 18411703213906225535
15400415 2 17330837337023896745
15419008 47 18040994034386206085
15420108 30 17476343376869195376
15775530 1 17192930592028326631
15927050 60 17692255552724020438
15968369 153 18129927993243677332
17980427 23 18059586754732382619
23559900 14 18338515348339115899
23845131 108 17256525223645010645
3493558 16 18202014222202464971
373842 8 18412826876641664929
4015057 19 18336824320946302507
4144715 1 18188779474101814483
4149490 64 18119528985190977075
469060 322 18264780856806816736
513532 50 18058183880536725900
5283268 108 18410295779161934370
5309563 4 18411136935226354199
5312544 6 17691686001733341279
653340 110 18124033425517983936
67856867 119 18267869574575989095
9777508 108 17762904268566215345

> <PUBCHEM_SHAPE_MULTIPOLES>
578.97
12.44
6.72
1.2
13.27
11.26
0.08
-14.39
-3.6
-1.56
-0.13
-0.71
-0.25
0.33

> <PUBCHEM_SHAPE_SELFOVERLAP>
1213.342

> <PUBCHEM_SHAPE_VOLUME>
326.3

> <PUBCHEM_COORDINATE_TYPE>
2
5
10

$$$$
