75368488
  -OEChem-12032416403D

 51 54  0     1  0  0  0  0  0999 V2000
   -5.7678   -2.8067   -0.3611 O   0  0  0  0  0  0  0  0  0  0  0  0
   -3.6101    2.4860    0.5462 O   0  0  0  0  0  0  0  0  0  0  0  0
    3.3444    2.9211    0.0381 O   0  0  0  0  0  0  0  0  0  0  0  0
    5.4670   -2.9685   -0.1419 O   0  0  0  0  0  0  0  0  0  0  0  0
   -2.9645    0.2472    0.1836 N   0  0  0  0  0  0  0  0  0  0  0  0
   -1.3644    1.8073    0.4184 N   0  0  0  0  0  0  0  0  0  0  0  0
    1.2971    1.8749   -0.3792 N   0  0  0  0  0  0  0  0  0  0  0  0
   -0.6408    0.5500    0.3329 C   0  0  1  0  0  0  0  0  0  0  0  0
   -1.7184   -0.4649   -0.0392 C   0  0  0  0  0  0  0  0  0  0  0  0
   -4.2467   -0.3979    0.0489 C   0  0  0  0  0  0  0  0  0  0  0  0
    0.5013    0.6667   -0.6713 C   0  0  0  0  0  0  0  0  0  0  0  0
   -0.6354    3.0496    0.6068 C   0  0  0  0  0  0  0  0  0  0  0  0
   -2.7540    1.6227    0.4047 C   0  0  0  0  0  0  0  0  0  0  0  0
    0.5291    3.1278   -0.3791 C   0  0  0  0  0  0  0  0  0  0  0  0
   -4.3945   -1.0512   -1.3259 C   0  0  0  0  0  0  0  0  0  0  0  0
   -4.4557   -1.4337    1.1539 C   0  0  0  0  0  0  0  0  0  0  0  0
   -5.6951   -1.8399   -1.4087 C   0  0  0  0  0  0  0  0  0  0  0  0
   -5.7521   -2.2025    0.9321 C   0  0  0  0  0  0  0  0  0  0  0  0
    2.6754    1.9084   -0.1620 C   0  0  0  0  0  0  0  0  0  0  0  0
    3.4059    0.6344   -0.1564 C   0  0  0  0  0  0  0  0  0  0  0  0
    3.9376    0.1302   -1.3433 C   0  0  0  0  0  0  0  0  0  0  0  0
    3.5669   -0.0720    1.0354 C   0  0  0  0  0  0  0  0  0  0  0  0
    4.6301   -1.0805   -1.3384 C   0  0  0  0  0  0  0  0  0  0  0  0
    4.2594   -1.2828    1.0405 C   0  0  0  0  0  0  0  0  0  0  0  0
    4.7911   -1.7870   -0.1465 C   0  0  0  0  0  0  0  0  0  0  0  0
    5.5943   -3.6385    1.1115 C   0  0  0  0  0  0  0  0  0  0  0  0
   -0.2483    0.3434    1.3368 H   0  0  0  0  0  0  0  0  0  0  0  0
   -1.6542   -1.3588    0.5861 H   0  0  0  0  0  0  0  0  0  0  0  0
   -1.6517   -0.7494   -1.0936 H   0  0  0  0  0  0  0  0  0  0  0  0
   -5.0232    0.3713    0.1506 H   0  0  0  0  0  0  0  0  0  0  0  0
    1.1074   -0.2414   -0.6557 H   0  0  0  0  0  0  0  0  0  0  0  0
    0.1189    0.7876   -1.6925 H   0  0  0  0  0  0  0  0  0  0  0  0
   -0.2621    3.0456    1.6371 H   0  0  0  0  0  0  0  0  0  0  0  0
   -1.3139    3.9003    0.4921 H   0  0  0  0  0  0  0  0  0  0  0  0
    0.1540    3.2701   -1.3997 H   0  0  0  0  0  0  0  0  0  0  0  0
    1.1690    3.9822   -0.1381 H   0  0  0  0  0  0  0  0  0  0  0  0
   -3.5720   -1.7546   -1.5026 H   0  0  0  0  0  0  0  0  0  0  0  0
   -4.3537   -0.2970   -2.1199 H   0  0  0  0  0  0  0  0  0  0  0  0
   -4.4634   -0.9516    2.1381 H   0  0  0  0  0  0  0  0  0  0  0  0
   -3.6310   -2.1561    1.1564 H   0  0  0  0  0  0  0  0  0  0  0  0
   -6.5671   -1.1775   -1.3552 H   0  0  0  0  0  0  0  0  0  0  0  0
   -5.7460   -2.3761   -2.3617 H   0  0  0  0  0  0  0  0  0  0  0  0
   -5.8434   -3.0014    1.6748 H   0  0  0  0  0  0  0  0  0  0  0  0
   -6.6261   -1.5495    1.0401 H   0  0  0  0  0  0  0  0  0  0  0  0
    3.8172    0.6723   -2.2776 H   0  0  0  0  0  0  0  0  0  0  0  0
    3.1549    0.3125    1.9650 H   0  0  0  0  0  0  0  0  0  0  0  0
    5.0418   -1.4684   -2.2661 H   0  0  0  0  0  0  0  0  0  0  0  0
    4.3470   -1.7796    2.0007 H   0  0  0  0  0  0  0  0  0  0  0  0
    6.1588   -4.5590    0.9300 H   0  0  0  0  0  0  0  0  0  0  0  0
    4.6182   -3.9354    1.5099 H   0  0  0  0  0  0  0  0  0  0  0  0
    6.1723   -3.0451    1.8281 H   0  0  0  0  0  0  0  0  0  0  0  0
  1 17  1  0  0  0  0
  1 18  1  0  0  0  0
  2 13  2  0  0  0  0
  3 19  2  0  0  0  0
  4 25  1  0  0  0  0
  4 26  1  0  0  0  0
  5  9  1  0  0  0  0
  5 10  1  0  0  0  0
  5 13  1  0  0  0  0
  6  8  1  0  0  0  0
  6 12  1  0  0  0  0
  6 13  1  0  0  0  0
  7 11  1  0  0  0  0
  7 14  1  0  0  0  0
  7 19  1  0  0  0  0
  8  9  1  0  0  0  0
  8 11  1  0  0  0  0
  8 27  1  0  0  0  0
  9 28  1  0  0  0  0
  9 29  1  0  0  0  0
 10 15  1  0  0  0  0
 10 16  1  0  0  0  0
 10 30  1  0  0  0  0
 11 31  1  0  0  0  0
 11 32  1  0  0  0  0
 12 14  1  0  0  0  0
 12 33  1  0  0  0  0
 12 34  1  0  0  0  0
 14 35  1  0  0  0  0
 14 36  1  0  0  0  0
 15 17  1  0  0  0  0
 15 37  1  0  0  0  0
 15 38  1  0  0  0  0
 16 18  1  0  0  0  0
 16 39  1  0  0  0  0
 16 40  1  0  0  0  0
 17 41  1  0  0  0  0
 17 42  1  0  0  0  0
 18 43  1  0  0  0  0
 18 44  1  0  0  0  0
 19 20  1  0  0  0  0
 20 21  2  0  0  0  0
 20 22  1  0  0  0  0
 21 23  1  0  0  0  0
 21 45  1  0  0  0  0
 22 24  2  0  0  0  0
 22 46  1  0  0  0  0
 23 25  2  0  0  0  0
 23 47  1  0  0  0  0
 24 25  1  0  0  0  0
 24 48  1  0  0  0  0
 26 49  1  0  0  0  0
 26 50  1  0  0  0  0
 26 51  1  0  0  0  0
M  END
> <PUBCHEM_COMPOUND_CID>
75368488

> <PUBCHEM_CONFORMER_RMSD>
0.8

> <PUBCHEM_CONFORMER_DIVERSEORDER>
1
53
41
48
44
32
45
35
28
54
40
58
30
14
4
10
2
23
16
52
51
3
15
56
25
22
12
20
19
9
11
18
50
31
29
47
8
38
46
55
6
21
33
42
34
5
17
57
24
43
49
13
27
26
39
36
7
37

> <PUBCHEM_MMFF94_PARTIAL_CHARGES>
28
1 -0.56
10 0.3
11 0.3
12 0.3
13 0.69
14 0.3
17 0.28
18 0.28
19 0.54
2 -0.57
20 0.09
21 -0.15
22 -0.15
23 -0.15
24 -0.15
25 0.08
26 0.28
3 -0.57
4 -0.36
45 0.15
46 0.15
47 0.15
48 0.15
5 -0.66
6 -0.66
7 -0.66
8 0.3
9 0.3

> <PUBCHEM_EFFECTIVE_ROTOR_COUNT>
6.4

> <PUBCHEM_PHARMACOPHORE_FEATURES>
8
1 1 acceptor
1 2 acceptor
1 3 acceptor
1 4 acceptor
5 5 6 8 9 13 rings
6 1 10 15 16 17 18 rings
6 20 21 22 23 24 25 rings
6 6 7 8 11 12 14 rings

> <PUBCHEM_HEAVY_ATOM_COUNT>
26

> <PUBCHEM_ATOM_DEF_STEREO_COUNT>
1

> <PUBCHEM_ATOM_UDEF_STEREO_COUNT>
0

> <PUBCHEM_BOND_DEF_STEREO_COUNT>
0

> <PUBCHEM_BOND_UDEF_STEREO_COUNT>
0

> <PUBCHEM_ISOTOPIC_ATOM_COUNT>
0

> <PUBCHEM_COMPONENT_COUNT>
1

> <PUBCHEM_CACTVS_TAUTO_COUNT>
1

> <PUBCHEM_CONFORMER_ID>
047E082800000001

> <PUBCHEM_MMFF94_ENERGY>
77.2561

> <PUBCHEM_FEATURE_SELFOVERLAP>
40.697

> <PUBCHEM_SHAPE_FINGERPRINT>
10042902 136 18265337214370761462
10074138 170 16986892129152521313
10622 236 18262514793423013338
10693767 8 18198045079948420303
10937287 8 8934997066508819424
117089 54 18337684005405282794
11963148 33 17980757461162343583
1200032 147 11239713132871691622
12107183 9 18196661687407789593
12166972 35 17967257498213220519
12422481 6 17274834545005616879
13533116 47 18338800125316930171
13540713 5 18339662078014826696
13911852 28 18410853256915752327
13955234 65 18054509376637679152
14251740 57 18343584074945638794
14251764 75 8718828712516717991
14347332 77 18411418410635445231
14429380 30 18336264548967999810
14848178 5 18409440397358780175
14848178 96 8502379914149821566
14866123 147 18122065304068038009
15188451 53 17917699180686617607
17349148 13 18059305352205769695
17492 89 18411138043312137848
17857418 61 18341895199088873727
18222031 100 18343584074676568125
19319366 153 17979638162746634252
193927 3 18411423924977853253
20028762 73 18202282523956394358
20645477 70 18263082265792153628
20691028 202 8069487914968256559
20775438 99 18048584112865682442
21033650 10 15864340299445597365
21279426 13 18260822714174130069
21703447 108 18339633538326040032
22061861 79 18114175384947610343
23559900 14 18409161121590396273
25222932 49 17838905080668698679
314194 84 18198062676017149969
345986 75 17775014530448336113
34797466 226 17169542129243831117
397830 11 11311777336832237471
4017518 198 15448572875684979314
44062 13 18335983056584404293
46194498 28 17168986862322420421
465052 167 18342183279946890486
50009960 94 18262778710832297042
5104073 3 18130793343001138352
56633871 153 18196099836954920257
6034566 193 9151166571867959319
6058803 2 18192734284051661164
76465 3 18411980252055034332
7970288 3 18410008819201490962
88748 71 18408890641608182817
960060 61 17168143451131033734

> <PUBCHEM_SHAPE_MULTIPOLES>
496.65
14.98
4.12
1.21
4.54
0.15
0.18
-17.38
0.47
-1.95
-0.72
0.08
-0.55
-1.41

> <PUBCHEM_SHAPE_SELFOVERLAP>
1057.982

> <PUBCHEM_SHAPE_VOLUME>
274.9

> <PUBCHEM_COORDINATE_TYPE>
2
5
10

$$$$
