11912266
  -OEChem-12032416113D

 53 54  0     1  0  0  0  0  0999 V2000
    3.5930   -1.0521   -0.5286 S   0  0  0  0  0  0  0  0  0  0  0  0
    4.0210   -1.1292   -1.9085 O   0  0  0  0  0  0  0  0  0  0  0  0
    4.1114   -1.9659    0.4662 O   0  0  0  0  0  0  0  0  0  0  0  0
   -2.8114    1.3940   -0.8310 O   0  0  0  0  0  0  0  0  0  0  0  0
   -6.8880    0.5192    0.7992 O   0  0  0  0  0  0  0  0  0  0  0  0
    1.8803   -1.0842   -0.4729 N   0  0  1  0  0  0  0  0  0  0  0  0
   -4.6041   -0.0850   -0.8316 N   0  0  0  0  0  0  0  0  0  0  0  0
   -0.1924   -1.5580    0.8141 C   0  0  2  0  0  0  0  0  0  0  0  0
   -0.9591   -0.5714   -0.0999 C   0  0  1  0  0  0  0  0  0  0  0  0
   -0.2799   -0.4334   -1.4709 C   0  0  0  0  0  0  0  0  0  0  0  0
    1.2879   -1.1518    0.8965 C   0  0  0  0  0  0  0  0  0  0  0  0
    1.1957   -0.0741   -1.3292 C   0  0  0  0  0  0  0  0  0  0  0  0
   -0.3248   -3.0286    0.3976 C   0  0  0  0  0  0  0  0  0  0  0  0
   -2.4365   -0.9276   -0.2634 C   0  0  0  0  0  0  0  0  0  0  0  0
    0.3581   -3.9418    1.3936 C   0  0  0  0  0  0  0  0  0  0  0  0
   -3.2719    0.2669   -0.6709 C   0  0  0  0  0  0  0  0  0  0  0  0
    3.8877    0.5936    0.0377 C   0  0  0  0  0  0  0  0  0  0  0  0
    4.0487    0.8440    1.4005 C   0  0  0  0  0  0  0  0  0  0  0  0
    3.9592    1.6438   -0.8776 C   0  0  0  0  0  0  0  0  0  0  0  0
   -5.6293    0.8583   -1.2154 C   0  0  0  0  0  0  0  0  0  0  0  0
    4.2809    2.1444    1.8480 C   0  0  0  0  0  0  0  0  0  0  0  0
    4.1916    2.9444   -0.4299 C   0  0  0  0  0  0  0  0  0  0  0  0
   -6.2659    1.5140   -0.0035 C   0  0  0  0  0  0  0  0  0  0  0  0
    4.3526    3.1945    0.9329 C   0  0  0  0  0  0  0  0  0  0  0  0
   -7.5048    1.0861    1.9471 C   0  0  0  0  0  0  0  0  0  0  0  0
   -0.6158   -1.4616    1.8239 H   0  0  0  0  0  0  0  0  0  0  0  0
   -0.8929    0.4091    0.3943 H   0  0  0  0  0  0  0  0  0  0  0  0
   -0.3713   -1.3726   -2.0309 H   0  0  0  0  0  0  0  0  0  0  0  0
   -0.7725    0.3375   -2.0738 H   0  0  0  0  0  0  0  0  0  0  0  0
    1.8520   -1.8276    1.5419 H   0  0  0  0  0  0  0  0  0  0  0  0
    1.3472   -0.1589    1.3595 H   0  0  0  0  0  0  0  0  0  0  0  0
    1.2750    0.9241   -0.8868 H   0  0  0  0  0  0  0  0  0  0  0  0
    1.6458   -0.0554   -2.3270 H   0  0  0  0  0  0  0  0  0  0  0  0
    0.0858   -3.2072   -0.6021 H   0  0  0  0  0  0  0  0  0  0  0  0
   -1.3833   -3.3085    0.3591 H   0  0  0  0  0  0  0  0  0  0  0  0
   -2.8406   -1.2846    0.6925 H   0  0  0  0  0  0  0  0  0  0  0  0
   -2.5737   -1.7238   -1.0047 H   0  0  0  0  0  0  0  0  0  0  0  0
    0.0777   -3.7030    2.4244 H   0  0  0  0  0  0  0  0  0  0  0  0
    0.0627   -4.9796    1.2035 H   0  0  0  0  0  0  0  0  0  0  0  0
    1.4477   -3.9085    1.3055 H   0  0  0  0  0  0  0  0  0  0  0  0
   -4.8872   -1.0462   -0.6635 H   0  0  0  0  0  0  0  0  0  0  0  0
    3.9934    0.0423    2.1313 H   0  0  0  0  0  0  0  0  0  0  0  0
    3.8359    1.4735   -1.9433 H   0  0  0  0  0  0  0  0  0  0  0  0
   -5.1939    1.6177   -1.8730 H   0  0  0  0  0  0  0  0  0  0  0  0
   -6.3776    0.2912   -1.7787 H   0  0  0  0  0  0  0  0  0  0  0  0
    4.4051    2.3396    2.9092 H   0  0  0  0  0  0  0  0  0  0  0  0
    4.2467    3.7623   -1.1423 H   0  0  0  0  0  0  0  0  0  0  0  0
   -7.0182    2.2390   -0.3348 H   0  0  0  0  0  0  0  0  0  0  0  0
   -5.5064    2.0386    0.5884 H   0  0  0  0  0  0  0  0  0  0  0  0
    4.5330    4.2072    1.2814 H   0  0  0  0  0  0  0  0  0  0  0  0
   -6.7604    1.5836    2.5763 H   0  0  0  0  0  0  0  0  0  0  0  0
   -8.2849    1.7950    1.6530 H   0  0  0  0  0  0  0  0  0  0  0  0
   -7.9658    0.2797    2.5238 H   0  0  0  0  0  0  0  0  0  0  0  0
  1  2  2  0  0  0  0
  1  3  2  0  0  0  0
  1  6  1  0  0  0  0
  1 17  1  0  0  0  0
  4 16  2  0  0  0  0
  5 23  1  0  0  0  0
  5 25  1  0  0  0  0
  6 11  1  0  0  0  0
  6 12  1  0  0  0  0
  7 16  1  0  0  0  0
  7 20  1  0  0  0  0
  7 41  1  0  0  0  0
  8  9  1  0  0  0  0
  8 11  1  0  0  0  0
  8 13  1  0  0  0  0
  8 26  1  0  0  0  0
  9 10  1  0  0  0  0
  9 14  1  0  0  0  0
  9 27  1  0  0  0  0
 10 12  1  0  0  0  0
 10 28  1  0  0  0  0
 10 29  1  0  0  0  0
 11 30  1  0  0  0  0
 11 31  1  0  0  0  0
 12 32  1  0  0  0  0
 12 33  1  0  0  0  0
 13 15  1  0  0  0  0
 13 34  1  0  0  0  0
 13 35  1  0  0  0  0
 14 16  1  0  0  0  0
 14 36  1  0  0  0  0
 14 37  1  0  0  0  0
 15 38  1  0  0  0  0
 15 39  1  0  0  0  0
 15 40  1  0  0  0  0
 17 18  2  0  0  0  0
 17 19  1  0  0  0  0
 18 21  1  0  0  0  0
 18 42  1  0  0  0  0
 19 22  2  0  0  0  0
 19 43  1  0  0  0  0
 20 23  1  0  0  0  0
 20 44  1  0  0  0  0
 20 45  1  0  0  0  0
 21 24  2  0  0  0  0
 21 46  1  0  0  0  0
 22 24  1  0  0  0  0
 22 47  1  0  0  0  0
 23 48  1  0  0  0  0
 23 49  1  0  0  0  0
 24 50  1  0  0  0  0
 25 51  1  0  0  0  0
 25 52  1  0  0  0  0
 25 53  1  0  0  0  0
M  END
> <PUBCHEM_COMPOUND_CID>
11912266

> <PUBCHEM_CONFORMER_RMSD>
1

> <PUBCHEM_CONFORMER_DIVERSEORDER>
1
62
102
111
110
115
98
46
30
63
100
112
48
28
92
105
26
99
38
66
51
69
77
65
21
76
59
97
81
103
44
91
70
64
80
73
45
95
114
40
57
61
16
89
54
94
11
49
108
85
6
37
60
72
53
27
3
75
67
71
107
90
23
106
58
8
24
84
74
10
104
18
19
39
32
113
47
12
7
86
56
55
87
5
96
29
36
15
34
83
101
33
68
4
2
50
9
20
109
14
35
93
88
41
13
79
52
43
42
78
82
17
22
25
31

> <PUBCHEM_MMFF94_PARTIAL_CHARGES>
26
1 1.45
11 0.36
12 0.36
14 0.06
16 0.57
17 -0.01
18 -0.15
19 -0.15
2 -0.65
20 0.3
21 -0.15
22 -0.15
23 0.28
24 -0.15
25 0.28
3 -0.65
4 -0.57
41 0.37
42 0.15
43 0.15
46 0.15
47 0.15
5 -0.56
50 0.15
6 -0.85
7 -0.73

> <PUBCHEM_EFFECTIVE_ROTOR_COUNT>
10.2

> <PUBCHEM_PHARMACOPHORE_FEATURES>
8
1 15 hydrophobe
1 2 acceptor
1 3 acceptor
1 4 acceptor
1 5 acceptor
1 7 donor
6 17 18 19 21 22 24 rings
6 6 8 9 10 11 12 rings

> <PUBCHEM_HEAVY_ATOM_COUNT>
25

> <PUBCHEM_ATOM_DEF_STEREO_COUNT>
2

> <PUBCHEM_ATOM_UDEF_STEREO_COUNT>
0

> <PUBCHEM_BOND_DEF_STEREO_COUNT>
0

> <PUBCHEM_BOND_UDEF_STEREO_COUNT>
0

> <PUBCHEM_ISOTOPIC_ATOM_COUNT>
0

> <PUBCHEM_COMPONENT_COUNT>
1

> <PUBCHEM_CACTVS_TAUTO_COUNT>
2

> <PUBCHEM_CONFORMER_ID>
00B5C44A00000001

> <PUBCHEM_MMFF94_ENERGY>
40.0568

> <PUBCHEM_FEATURE_SELFOVERLAP>
40.615

> <PUBCHEM_SHAPE_FINGERPRINT>
11578080 2 18263371450672919586
12422481 6 16878206602857777815
12616971 3 18130493159389128487
12633257 1 17534032394331108936
12730499 353 18188217502826241635
13955234 65 18189893124118909347
14178342 30 17751917171752377146
14211702 104 8430014492129425889
14251740 57 10737281320996449552
14565420 104 18408041797710741139
146900 427 18336829698007428155
15183329 4 12607406573016360745
17913733 40 18334300851465698611
1813 80 10303814302031812843
18222031 100 10087641511465030183
1979834 28 17894353250605052383
21033648 29 18262241130949181080
21641784 216 15195296321845426859
22149856 69 18041862627604084873
23559900 14 18411136944454871870
2838139 119 18202272611414090861
3178227 256 18189053114478246794
3680242 22 18261383455739486073
4340502 62 18334011700949626867
465052 167 15864357912958784511
495365 180 18272082825555021414
5104073 3 18334571373806481411
56616090 13 18059000817386044876
57527585 21 17547003495822194380
633830 44 18341039770421024239
960060 61 11959732728408527096
9658208 31 18261122901659471122

> <PUBCHEM_SHAPE_MULTIPOLES>
484.9
15.35
3.51
1.67
29.55
1.4
0.25
-13.59
4.02
-3.74
1.56
0.06
-0.2
0.66

> <PUBCHEM_SHAPE_SELFOVERLAP>
970.89

> <PUBCHEM_SHAPE_VOLUME>
285.5

> <PUBCHEM_COORDINATE_TYPE>
2
5
10

$$$$
