26744413
  -OEChem-12032416403D

 50 53  0     1  0  0  0  0  0999 V2000
   -5.1101   -2.8948    1.1252 F   0  0  0  0  0  0  0  0  0  0  0  0
    6.2548   -1.2602    1.3413 O   0  0  0  0  0  0  0  0  0  0  0  0
    1.6684   -1.4105   -2.0397 O   0  0  0  0  0  0  0  0  0  0  0  0
   -3.4752    2.2723    1.5608 O   0  0  0  0  0  0  0  0  0  0  0  0
    3.3245    0.6206    0.5373 N   0  0  1  0  0  0  0  0  0  0  0  0
    0.9136   -1.0702    0.0414 N   0  0  0  0  0  0  0  0  0  0  0  0
    0.3470   -1.8746   -2.0240 N   0  0  0  0  0  0  0  0  0  0  0  0
   -2.5995    2.7027   -0.5855 N   0  0  0  0  0  0  0  0  0  0  0  0
    3.3057   -0.3909   -0.5389 C   0  0  1  0  0  0  0  0  0  0  0  0
    4.3143   -1.4639   -0.0883 C   0  0  0  0  0  0  0  0  0  0  0  0
    4.8808   -0.9451    1.2275 C   0  0  2  0  0  0  0  0  0  0  0  0
    4.6512    0.5522    1.1468 C   0  0  0  0  0  0  0  0  0  0  0  0
    3.0045    1.9630    0.0695 C   0  0  0  0  0  0  0  0  0  0  0  0
    1.9221   -0.9544   -0.7851 C   0  0  0  0  0  0  0  0  0  0  0  0
    1.5216    2.1576   -0.1041 C   0  0  0  0  0  0  0  0  0  0  0  0
    1.0063    2.5157   -1.3499 C   0  0  0  0  0  0  0  0  0  0  0  0
    0.6632    1.9811    0.9811 C   0  0  0  0  0  0  0  0  0  0  0  0
   -0.0296   -1.6397   -0.7634 C   0  0  0  0  0  0  0  0  0  0  0  0
   -0.3672    2.6974   -1.5104 C   0  0  0  0  0  0  0  0  0  0  0  0
   -0.7103    2.1629    0.8206 C   0  0  0  0  0  0  0  0  0  0  0  0
   -1.2256    2.5210   -0.4250 C   0  0  0  0  0  0  0  0  0  0  0  0
   -1.3395   -1.9634   -0.2766 C   0  0  0  0  0  0  0  0  0  0  0  0
   -1.6759   -1.6964    1.0507 C   0  0  0  0  0  0  0  0  0  0  0  0
   -2.2770   -2.5447   -1.1302 C   0  0  0  0  0  0  0  0  0  0  0  0
   -2.9495   -2.0111    1.5242 C   0  0  0  0  0  0  0  0  0  0  0  0
   -3.5507   -2.8594   -0.6567 C   0  0  0  0  0  0  0  0  0  0  0  0
   -3.6080    2.5715    0.3786 C   0  0  0  0  0  0  0  0  0  0  0  0
   -3.8869   -2.5926    0.6704 C   0  0  0  0  0  0  0  0  0  0  0  0
   -4.9728    2.8540   -0.1979 C   0  0  0  0  0  0  0  0  0  0  0  0
    3.6782    0.0374   -1.4801 H   0  0  0  0  0  0  0  0  0  0  0  0
    5.1077   -1.5774   -0.8377 H   0  0  0  0  0  0  0  0  0  0  0  0
    3.8618   -2.4516    0.0565 H   0  0  0  0  0  0  0  0  0  0  0  0
    4.3407   -1.3762    2.0794 H   0  0  0  0  0  0  0  0  0  0  0  0
    5.4228    1.0332    0.5310 H   0  0  0  0  0  0  0  0  0  0  0  0
    4.6757    1.0119    2.1403 H   0  0  0  0  0  0  0  0  0  0  0  0
    3.3218    2.7038    0.8170 H   0  0  0  0  0  0  0  0  0  0  0  0
    3.5545    2.2163   -0.8463 H   0  0  0  0  0  0  0  0  0  0  0  0
    6.3358   -2.2289    1.3109 H   0  0  0  0  0  0  0  0  0  0  0  0
    1.6630    2.6545   -2.2044 H   0  0  0  0  0  0  0  0  0  0  0  0
    1.0513    1.7065    1.9586 H   0  0  0  0  0  0  0  0  0  0  0  0
   -0.7550    2.9753   -2.4871 H   0  0  0  0  0  0  0  0  0  0  0  0
   -1.3109    2.0076    1.7060 H   0  0  0  0  0  0  0  0  0  0  0  0
   -2.8965    2.9622   -1.5239 H   0  0  0  0  0  0  0  0  0  0  0  0
   -0.9680   -1.2435    1.7403 H   0  0  0  0  0  0  0  0  0  0  0  0
   -2.0514   -2.7669   -2.1702 H   0  0  0  0  0  0  0  0  0  0  0  0
   -3.2123   -1.8027    2.5572 H   0  0  0  0  0  0  0  0  0  0  0  0
   -4.2812   -3.3120   -1.3207 H   0  0  0  0  0  0  0  0  0  0  0  0
   -5.1793    2.1607   -1.0181 H   0  0  0  0  0  0  0  0  0  0  0  0
   -5.0118    3.8820   -0.5689 H   0  0  0  0  0  0  0  0  0  0  0  0
   -5.7355    2.7256    0.5751 H   0  0  0  0  0  0  0  0  0  0  0  0
  1 28  1  0  0  0  0
  2 11  1  0  0  0  0
  2 38  1  0  0  0  0
  3  7  1  0  0  0  0
  3 14  1  0  0  0  0
  4 27  2  0  0  0  0
  5  9  1  0  0  0  0
  5 12  1  0  0  0  0
  5 13  1  0  0  0  0
  6 14  2  0  0  0  0
  6 18  1  0  0  0  0
  7 18  2  0  0  0  0
  8 21  1  0  0  0  0
  8 27  1  0  0  0  0
  8 43  1  0  0  0  0
  9 10  1  0  0  0  0
  9 14  1  0  0  0  0
  9 30  1  0  0  0  0
 10 11  1  0  0  0  0
 10 31  1  0  0  0  0
 10 32  1  0  0  0  0
 11 12  1  0  0  0  0
 11 33  1  0  0  0  0
 12 34  1  0  0  0  0
 12 35  1  0  0  0  0
 13 15  1  0  0  0  0
 13 36  1  0  0  0  0
 13 37  1  0  0  0  0
 15 16  2  0  0  0  0
 15 17  1  0  0  0  0
 16 19  1  0  0  0  0
 16 39  1  0  0  0  0
 17 20  2  0  0  0  0
 17 40  1  0  0  0  0
 18 22  1  0  0  0  0
 19 21  2  0  0  0  0
 19 41  1  0  0  0  0
 20 21  1  0  0  0  0
 20 42  1  0  0  0  0
 22 23  2  0  0  0  0
 22 24  1  0  0  0  0
 23 25  1  0  0  0  0
 23 44  1  0  0  0  0
 24 26  2  0  0  0  0
 24 45  1  0  0  0  0
 25 28  2  0  0  0  0
 25 46  1  0  0  0  0
 26 28  1  0  0  0  0
 26 47  1  0  0  0  0
 27 29  1  0  0  0  0
 29 48  1  0  0  0  0
 29 49  1  0  0  0  0
 29 50  1  0  0  0  0
M  END
> <PUBCHEM_COMPOUND_CID>
26744413

> <PUBCHEM_CONFORMER_RMSD>
0.8

> <PUBCHEM_CONFORMER_DIVERSEORDER>
1
37
52
103
73
93
69
9
75
83
56
97
67
90
74
98
68
33
3
30
57
100
38
41
23
40
43
20
63
50
86
105
78
87
70
77
28
53
2
55
61
81
42
47
12
66
54
34
85
82
101
72
58
5
35
39
46
106
95
62
79
18
22
104
76
44
84
92
27
29
19
71
65
59
24
13
21
91
36
4
11
49
10
45
99
60
32
15
88
51
25
48
7
102
17
26
96
31
94
6
8
89
64
14
16
80

> <PUBCHEM_MMFF94_PARTIAL_CHARGES>
38
1 -0.19
11 0.28
12 0.27
13 0.41
14 0.3
15 -0.14
16 -0.15
17 -0.15
18 0.46
19 -0.15
2 -0.68
20 -0.15
21 0.12
22 0.05
23 -0.15
24 -0.15
25 -0.15
26 -0.15
27 0.57
28 0.19
29 0.06
3 -0.02
38 0.4
39 0.15
4 -0.57
40 0.15
41 0.15
42 0.15
43 0.37
44 0.15
45 0.15
46 0.15
47 0.15
5 -0.81
6 -0.57
7 -0.41
8 -0.55
9 0.45

> <PUBCHEM_EFFECTIVE_ROTOR_COUNT>
7

> <PUBCHEM_PHARMACOPHORE_FEATURES>
10
1 2 acceptor
1 2 donor
1 4 acceptor
1 5 cation
1 8 donor
3 6 7 18 cation
5 3 6 7 14 18 rings
5 5 9 10 11 12 rings
6 15 16 17 19 20 21 rings
6 22 23 24 25 26 28 rings

> <PUBCHEM_HEAVY_ATOM_COUNT>
29

> <PUBCHEM_ATOM_DEF_STEREO_COUNT>
2

> <PUBCHEM_ATOM_UDEF_STEREO_COUNT>
0

> <PUBCHEM_BOND_DEF_STEREO_COUNT>
0

> <PUBCHEM_BOND_UDEF_STEREO_COUNT>
0

> <PUBCHEM_ISOTOPIC_ATOM_COUNT>
0

> <PUBCHEM_COMPONENT_COUNT>
1

> <PUBCHEM_CACTVS_TAUTO_COUNT>
2

> <PUBCHEM_CONFORMER_ID>
0198165D00000001

> <PUBCHEM_MMFF94_ENERGY>
65.7611

> <PUBCHEM_FEATURE_SELFOVERLAP>
50.747

> <PUBCHEM_SHAPE_FINGERPRINT>
104564 63 18268440211560774732
10688039 33 18188202233884675373
108634 29 18341057298403832343
12035758 1 18338244747707753137
12156800 1 18194994943807027997
12422481 6 18198646426692540755
12633257 1 18336263436333846312
13140716 1 18411132533307239336
13402501 40 18342174410902740353
13692114 37 18201140089194808821
13947920 24 12175034594138705562
13965767 371 17699587027496355922
14787075 74 17773018779215317665
14790565 3 17111846523022938732
14840074 17 17907289215723822472
14866123 147 18190168010488921010
20764821 26 18338252539136864117
20905425 154 18197797685067035925
21033648 29 17631146677097234034
21041028 32 18265328593711879031
21133410 90 17417808504874473713
21197605 99 18343021103970983957
21304304 249 18191866712988006052
22182313 1 17917442981924844582
24893992 56 18041271154931404695
24941158 1 15983165594911820237
3052486 1 18261120663848907020
38695281 34 18048593725587916665
4340502 62 18057883550416896841
469060 322 17385712574721241406
5104073 3 18267282328145075384
5283268 108 18265905820057509702

> <PUBCHEM_SHAPE_MULTIPOLES>
552
9.81
4.77
1.58
4.74
1.22
-0.22
-3.32
4.53
-6.2
-0.42
0.11
-0.37
0.14

> <PUBCHEM_SHAPE_SELFOVERLAP>
1198.963

> <PUBCHEM_SHAPE_VOLUME>
303.8

> <PUBCHEM_COORDINATE_TYPE>
2
5
10

$$$$
