7142823
  -OEChem-12032416273D

 50 54  0     1  0  0  0  0  0999 V2000
   -8.3533    1.0323    1.0074 F   0  0  0  0  0  0  0  0  0  0  0  0
   -0.5575   -1.2532    1.9969 O   0  0  0  0  0  0  0  0  0  0  0  0
   -2.8016    0.6083   -1.8771 O   0  0  0  0  0  0  0  0  0  0  0  0
    3.9231   -0.0520    0.0490 N   0  0  0  0  0  0  0  0  0  0  0  0
    1.1813   -1.6414    0.4848 N   0  0  0  0  0  0  0  0  0  0  0  0
    4.2682    1.9743   -1.1096 N   0  0  0  0  0  0  0  0  0  0  0  0
    4.1890    1.9319    1.2985 N   0  0  0  0  0  0  0  0  0  0  0  0
   -2.3640   -0.6863    0.0051 N   0  0  0  0  0  0  0  0  0  0  0  0
    3.5626   -2.2136    1.2272 C   0  0  1  0  0  0  0  0  0  0  0  0
    3.0463   -2.0257   -1.1640 C   0  0  2  0  0  0  0  0  0  0  0  0
    3.6632   -2.9371   -0.1079 C   0  0  0  0  0  0  0  0  0  0  0  0
    4.3313   -0.8789    1.1894 C   0  0  0  0  0  0  0  0  0  0  0  0
    2.0821   -2.0216    1.5796 C   0  0  0  0  0  0  0  0  0  0  0  0
    3.8597   -0.7199   -1.2594 C   0  0  0  0  0  0  0  0  0  0  0  0
    1.5958   -1.7117   -0.8481 C   0  0  0  0  0  0  0  0  0  0  0  0
    0.7218   -1.4745   -1.8409 C   0  0  0  0  0  0  0  0  0  0  0  0
   -0.1422   -1.3095    0.8385 C   0  0  0  0  0  0  0  0  0  0  0  0
    4.1339    1.3292    0.0803 C   0  0  0  0  0  0  0  0  0  0  0  0
   -1.0781   -1.0267   -0.2956 C   0  0  0  0  0  0  0  0  0  0  0  0
   -0.6409   -1.1235   -1.5557 C   0  0  0  0  0  0  0  0  0  0  0  0
    4.4698    3.3067   -1.0426 C   0  0  0  0  0  0  0  0  0  0  0  0
    4.3929    3.2655    1.2915 C   0  0  0  0  0  0  0  0  0  0  0  0
   -3.1533    0.1153   -0.8082 C   0  0  0  0  0  0  0  0  0  0  0  0
    4.5421    4.0125    0.1409 C   0  0  0  0  0  0  0  0  0  0  0  0
   -4.5375    0.3582   -0.3250 C   0  0  0  0  0  0  0  0  0  0  0  0
   -5.5269    0.6286   -1.2474 C   0  0  0  0  0  0  0  0  0  0  0  0
   -4.7884    0.3066    1.0303 C   0  0  0  0  0  0  0  0  0  0  0  0
   -6.8260    0.8580   -0.7938 C   0  0  0  0  0  0  0  0  0  0  0  0
   -6.0874    0.5362    1.4841 C   0  0  0  0  0  0  0  0  0  0  0  0
   -7.1061    0.8119    0.5719 C   0  0  0  0  0  0  0  0  0  0  0  0
    4.0191   -2.8308    2.0113 H   0  0  0  0  0  0  0  0  0  0  0  0
    3.1065   -2.5390   -2.1329 H   0  0  0  0  0  0  0  0  0  0  0  0
    3.1367   -3.8989   -0.0676 H   0  0  0  0  0  0  0  0  0  0  0  0
    4.7108   -3.1534   -0.3499 H   0  0  0  0  0  0  0  0  0  0  0  0
    4.1671   -0.3636    2.1432 H   0  0  0  0  0  0  0  0  0  0  0  0
    5.4081   -1.0773    1.1137 H   0  0  0  0  0  0  0  0  0  0  0  0
    1.6885   -2.9706    1.9690 H   0  0  0  0  0  0  0  0  0  0  0  0
    1.9710   -1.2942    2.3936 H   0  0  0  0  0  0  0  0  0  0  0  0
    4.8790   -0.9359   -1.6043 H   0  0  0  0  0  0  0  0  0  0  0  0
    3.3892   -0.0810   -2.0178 H   0  0  0  0  0  0  0  0  0  0  0  0
    1.0211   -1.5164   -2.8830 H   0  0  0  0  0  0  0  0  0  0  0  0
   -1.2676   -0.9948   -2.4296 H   0  0  0  0  0  0  0  0  0  0  0  0
   -2.6677   -0.9344    0.9403 H   0  0  0  0  0  0  0  0  0  0  0  0
    4.5752    3.8080   -1.9988 H   0  0  0  0  0  0  0  0  0  0  0  0
    4.4348    3.7329    2.2695 H   0  0  0  0  0  0  0  0  0  0  0  0
    4.7048    5.0816    0.1650 H   0  0  0  0  0  0  0  0  0  0  0  0
   -5.3267    0.6631   -2.3142 H   0  0  0  0  0  0  0  0  0  0  0  0
   -4.0249    0.1406    1.7818 H   0  0  0  0  0  0  0  0  0  0  0  0
   -7.6198    1.0714   -1.5035 H   0  0  0  0  0  0  0  0  0  0  0  0
   -6.3048    0.5100    2.5479 H   0  0  0  0  0  0  0  0  0  0  0  0
  1 30  1  0  0  0  0
  2 17  2  0  0  0  0
  3 23  2  0  0  0  0
  4 12  1  0  0  0  0
  4 14  1  0  0  0  0
  4 18  1  0  0  0  0
  5 13  1  0  0  0  0
  5 15  1  0  0  0  0
  5 17  1  0  0  0  0
  6 18  2  0  0  0  0
  6 21  1  0  0  0  0
  7 18  1  0  0  0  0
  7 22  2  0  0  0  0
  8 19  1  0  0  0  0
  8 23  1  0  0  0  0
  8 43  1  0  0  0  0
  9 11  1  0  0  0  0
  9 12  1  0  0  0  0
  9 13  1  0  0  0  0
  9 31  1  0  0  0  0
 10 11  1  0  0  0  0
 10 14  1  0  0  0  0
 10 15  1  0  0  0  0
 10 32  1  0  0  0  0
 11 33  1  0  0  0  0
 11 34  1  0  0  0  0
 12 35  1  0  0  0  0
 12 36  1  0  0  0  0
 13 37  1  0  0  0  0
 13 38  1  0  0  0  0
 14 39  1  0  0  0  0
 14 40  1  0  0  0  0
 15 16  2  0  0  0  0
 16 20  1  0  0  0  0
 16 41  1  0  0  0  0
 17 19  1  0  0  0  0
 19 20  2  0  0  0  0
 20 42  1  0  0  0  0
 21 24  2  0  0  0  0
 21 44  1  0  0  0  0
 22 24  1  0  0  0  0
 22 45  1  0  0  0  0
 23 25  1  0  0  0  0
 24 46  1  0  0  0  0
 25 26  2  0  0  0  0
 25 27  1  0  0  0  0
 26 28  1  0  0  0  0
 26 47  1  0  0  0  0
 27 29  2  0  0  0  0
 27 48  1  0  0  0  0
 28 30  2  0  0  0  0
 28 49  1  0  0  0  0
 29 30  1  0  0  0  0
 29 50  1  0  0  0  0
M  END
> <PUBCHEM_COMPOUND_CID>
7142823

> <PUBCHEM_CONFORMER_RMSD>
0.8

> <PUBCHEM_CONFORMER_DIVERSEORDER>
1
6
3
2
4
5

> <PUBCHEM_MMFF94_PARTIAL_CHARGES>
38
1 -0.19
10 0.14
12 0.37
13 0.3
14 0.37
15 -0.03
16 -0.15
17 0.62
18 0.72
19 0.12
2 -0.57
20 -0.15
21 0.16
22 0.16
23 0.54
24 -0.15
25 0.09
26 -0.15
27 -0.15
28 -0.15
29 -0.15
3 -0.57
30 0.19
4 -0.84
41 0.15
42 0.15
43 0.37
44 0.15
45 0.15
46 0.15
47 0.15
48 0.15
49 0.15
5 -0.47
50 0.15
6 -0.62
7 -0.62
8 -0.54

> <PUBCHEM_EFFECTIVE_ROTOR_COUNT>
5

> <PUBCHEM_PHARMACOPHORE_FEATURES>
10
1 2 acceptor
1 3 acceptor
1 7 acceptor
1 8 donor
4 4 6 7 18 cation
6 25 26 27 28 29 30 rings
6 4 9 10 11 12 14 rings
6 5 15 16 17 19 20 rings
6 5 9 10 11 13 15 rings
6 6 7 18 21 22 24 rings

> <PUBCHEM_HEAVY_ATOM_COUNT>
30

> <PUBCHEM_ATOM_DEF_STEREO_COUNT>
2

> <PUBCHEM_ATOM_UDEF_STEREO_COUNT>
0

> <PUBCHEM_BOND_DEF_STEREO_COUNT>
0

> <PUBCHEM_BOND_UDEF_STEREO_COUNT>
0

> <PUBCHEM_ISOTOPIC_ATOM_COUNT>
0

> <PUBCHEM_COMPONENT_COUNT>
1

> <PUBCHEM_CACTVS_TAUTO_COUNT>
2

> <PUBCHEM_CONFORMER_ID>
006CFDA700000001

> <PUBCHEM_MMFF94_ENERGY>
98.1507

> <PUBCHEM_FEATURE_SELFOVERLAP>
52.303

> <PUBCHEM_SHAPE_FINGERPRINT>
10165383 225 17603877706676224774
10638233 991 18273497854128396289
10673678 19 18060143171301945117
10675989 125 18200873006248280744
10816530 23 18411140272522341603
11505856 67 17398683779555565166
11578080 2 18189065337643811514
11954058 11 11170179948500197128
1200032 147 18341335591210871776
12166972 35 17916303844944736418
12422481 6 15357962469831000427
12522641 24 18041275453043486963
12633257 1 16372113616001694468
13878862 14 18263624238988197492
13955234 65 18262233300945135227
14251764 75 18196653110643078416
14347332 77 7781524711403998879
14849402 71 18333446552532047728
15183329 4 13254795725079415843
15348495 7 18186524298006120891
15475509 8 12895088318530524051
15510800 12 10231492756937695772
16992828 155 13955920630254085376
17844677 252 18265895766071676933
18335252 114 18273497854006810972
19304671 126 17702114749565165536
19438510 23 18197772405121945624
1979834 28 17894632573455391196
21033648 29 18042125526419744424
21475661 188 18262235642260713908
21641784 216 16415489216357038729
21792934 111 17240486859149708293
22122407 14 18340215090030707977
23522609 53 17274558568046052457
23559900 14 17313678061289585702
23569914 152 10301042279311433489
2838139 119 18341323461537568925
29717793 49 11383826052967392675
3004659 81 16486693554611796566
3411729 13 18411138069066273284
34797466 226 18342743988322963599
394071 54 18410578391999439413
397830 11 18261120711911517691
4258327 124 18131067156963896549
44317340 157 18412268341613774603
4625314 4 18341331103328711567
474113 269 12396565378699515281
513532 50 15554157160328312056
57359948 33 13686296872507513490
5951187 136 16629952361095907496
59682541 52 9943803379155611203
68570916 9 18343015606529298831
9849439 229 18124303072571954040

> <PUBCHEM_SHAPE_MULTIPOLES>
573.47
17.39
3.61
1.79
35.72
3.08
-0.02
12.45
-2.92
-9.23
-0.26
0.04
-0.29
-0.25

> <PUBCHEM_SHAPE_SELFOVERLAP>
1271.046

> <PUBCHEM_SHAPE_VOLUME>
302.7

> <PUBCHEM_COORDINATE_TYPE>
2
5
10

$$$$
