45784274
  -OEChem-12032416243D

 46 49  0     1  0  0  0  0  0999 V2000
    8.3490   -0.9398    1.0693 F   0  0  0  0  0  0  0  0  0  0  0  0
    8.7416    0.7501   -0.2414 F   0  0  0  0  0  0  0  0  0  0  0  0
    8.2261   -1.1880   -1.0818 F   0  0  0  0  0  0  0  0  0  0  0  0
   -8.5625   -1.4485   -0.0097 F   0  0  0  0  0  0  0  0  0  0  0  0
   -8.3166   -0.0628    1.6479 F   0  0  0  0  0  0  0  0  0  0  0  0
   -8.9405    0.6738   -0.2943 F   0  0  0  0  0  0  0  0  0  0  0  0
   -1.6456   -0.1660   -0.2679 N   0  0  1  0  0  0  0  0  0  0  0  0
    2.9970   -1.2007    0.3105 N   0  0  0  0  0  0  0  0  0  0  0  0
    2.4207    0.9351    0.0964 N   0  0  0  0  0  0  0  0  0  0  0  0
    0.5347   -0.7205    0.3938 C   0  0  1  0  0  0  0  0  0  0  0  0
   -0.2204   -0.0969    1.5805 C   0  0  0  0  0  0  0  0  0  0  0  0
   -0.3101   -0.3617   -0.8360 C   0  0  0  0  0  0  0  0  0  0  0  0
   -1.4249    0.5986    0.9595 C   0  0  0  0  0  0  0  0  0  0  0  0
    1.9777   -0.2909    0.2630 C   0  0  0  0  0  0  0  0  0  0  0  0
   -2.5467    0.5116   -1.1884 C   0  0  0  0  0  0  0  0  0  0  0  0
   -3.9894    0.3251   -0.7999 C   0  0  0  0  0  0  0  0  0  0  0  0
    4.1763   -0.5164    0.1644 C   0  0  0  0  0  0  0  0  0  0  0  0
    3.7899    0.8146    0.0327 C   0  0  0  0  0  0  0  0  0  0  0  0
    5.5071   -0.9343    0.1371 C   0  0  0  0  0  0  0  0  0  0  0  0
   -4.6295   -0.8871   -1.0573 C   0  0  0  0  0  0  0  0  0  0  0  0
   -4.6856    1.3640   -0.1819 C   0  0  0  0  0  0  0  0  0  0  0  0
    4.7766    1.8006   -0.1371 C   0  0  0  0  0  0  0  0  0  0  0  0
    6.4759    0.0602   -0.0326 C   0  0  0  0  0  0  0  0  0  0  0  0
    6.1193    1.4040   -0.1674 C   0  0  0  0  0  0  0  0  0  0  0  0
   -5.9657   -1.0606   -0.6970 C   0  0  0  0  0  0  0  0  0  0  0  0
   -6.0218    1.1906    0.1784 C   0  0  0  0  0  0  0  0  0  0  0  0
   -6.6619   -0.0216   -0.0791 C   0  0  0  0  0  0  0  0  0  0  0  0
    7.9189   -0.3242   -0.0704 C   0  0  0  0  0  0  0  0  0  0  0  0
   -8.0897   -0.2083    0.3089 C   0  0  0  0  0  0  0  0  0  0  0  0
    0.5070   -1.8120    0.5254 H   0  0  0  0  0  0  0  0  0  0  0  0
   -0.5532   -0.8928    2.2586 H   0  0  0  0  0  0  0  0  0  0  0  0
    0.3873    0.6033    2.1634 H   0  0  0  0  0  0  0  0  0  0  0  0
    0.0566    0.5531   -1.3206 H   0  0  0  0  0  0  0  0  0  0  0  0
   -0.2980   -1.1697   -1.5757 H   0  0  0  0  0  0  0  0  0  0  0  0
   -1.1768    1.6474    0.7509 H   0  0  0  0  0  0  0  0  0  0  0  0
   -2.2855    0.5698    1.6351 H   0  0  0  0  0  0  0  0  0  0  0  0
   -2.3034    1.5774   -1.2963 H   0  0  0  0  0  0  0  0  0  0  0  0
   -2.4345    0.0894   -2.1972 H   0  0  0  0  0  0  0  0  0  0  0  0
    2.9025   -2.2005    0.4312 H   0  0  0  0  0  0  0  0  0  0  0  0
    5.7733   -1.9805    0.2427 H   0  0  0  0  0  0  0  0  0  0  0  0
   -4.0976   -1.7041   -1.5379 H   0  0  0  0  0  0  0  0  0  0  0  0
   -4.1980    2.3128    0.0260 H   0  0  0  0  0  0  0  0  0  0  0  0
    4.5093    2.8472   -0.2427 H   0  0  0  0  0  0  0  0  0  0  0  0
    6.8784    2.1713   -0.2990 H   0  0  0  0  0  0  0  0  0  0  0  0
   -6.4457   -2.0127   -0.9060 H   0  0  0  0  0  0  0  0  0  0  0  0
   -6.5557    2.0054    0.6603 H   0  0  0  0  0  0  0  0  0  0  0  0
  1 28  1  0  0  0  0
  2 28  1  0  0  0  0
  3 28  1  0  0  0  0
  4 29  1  0  0  0  0
  5 29  1  0  0  0  0
  6 29  1  0  0  0  0
  7 12  1  0  0  0  0
  7 13  1  0  0  0  0
  7 15  1  0  0  0  0
  8 14  1  0  0  0  0
  8 17  1  0  0  0  0
  8 39  1  0  0  0  0
  9 14  2  0  0  0  0
  9 18  1  0  0  0  0
 10 11  1  0  0  0  0
 10 12  1  0  0  0  0
 10 14  1  0  0  0  0
 10 30  1  0  0  0  0
 11 13  1  0  0  0  0
 11 31  1  0  0  0  0
 11 32  1  0  0  0  0
 12 33  1  0  0  0  0
 12 34  1  0  0  0  0
 13 35  1  0  0  0  0
 13 36  1  0  0  0  0
 15 16  1  0  0  0  0
 15 37  1  0  0  0  0
 15 38  1  0  0  0  0
 16 20  2  0  0  0  0
 16 21  1  0  0  0  0
 17 18  2  0  0  0  0
 17 19  1  0  0  0  0
 18 22  1  0  0  0  0
 19 23  2  0  0  0  0
 19 40  1  0  0  0  0
 20 25  1  0  0  0  0
 20 41  1  0  0  0  0
 21 26  2  0  0  0  0
 21 42  1  0  0  0  0
 22 24  2  0  0  0  0
 22 43  1  0  0  0  0
 23 24  1  0  0  0  0
 23 28  1  0  0  0  0
 24 44  1  0  0  0  0
 25 27  2  0  0  0  0
 25 45  1  0  0  0  0
 26 27  1  0  0  0  0
 26 46  1  0  0  0  0
 27 29  1  0  0  0  0
M  END
> <PUBCHEM_COMPOUND_CID>
45784274

> <PUBCHEM_CONFORMER_RMSD>
0.8

> <PUBCHEM_CONFORMER_DIVERSEORDER>
1
46
49
23
35
39
47
43
42
59
55
19
40
24
34
52
38
29
57
45
44
12
32
50
5
9
58
41
51
30
17
27
56
20
4
54
48
15
31
7
10
14
6
3
2
13
25
11
21
18
36
33
28
22
16
53
26
37
8

> <PUBCHEM_MMFF94_PARTIAL_CHARGES>
36
1 -0.34
10 0.18
12 0.27
13 0.27
14 0.01
15 0.41
16 -0.14
17 -0.15
18 0.23
19 -0.15
2 -0.34
20 -0.15
21 -0.15
22 -0.15
23 -0.14
24 -0.15
25 -0.15
26 -0.15
27 -0.14
28 1.16
29 1.16
3 -0.34
39 0.27
4 -0.34
40 0.15
41 0.15
42 0.15
43 0.15
44 0.15
45 0.15
46 0.15
5 -0.34
6 -0.34
7 -0.81
8 0.03
9 -0.57

> <PUBCHEM_EFFECTIVE_ROTOR_COUNT>
6

> <PUBCHEM_PHARMACOPHORE_FEATURES>
7
1 7 cation
1 8 donor
3 8 9 14 cation
5 7 10 11 12 13 rings
5 8 9 14 17 18 rings
6 16 20 21 25 26 27 rings
6 17 18 19 22 23 24 rings

> <PUBCHEM_HEAVY_ATOM_COUNT>
29

> <PUBCHEM_ATOM_DEF_STEREO_COUNT>
1

> <PUBCHEM_ATOM_UDEF_STEREO_COUNT>
0

> <PUBCHEM_BOND_DEF_STEREO_COUNT>
0

> <PUBCHEM_BOND_UDEF_STEREO_COUNT>
0

> <PUBCHEM_ISOTOPIC_ATOM_COUNT>
0

> <PUBCHEM_COMPONENT_COUNT>
1

> <PUBCHEM_CACTVS_TAUTO_COUNT>
2

> <PUBCHEM_CONFORMER_ID>
02BA9CD200000001

> <PUBCHEM_MMFF94_ENERGY>
50.3524

> <PUBCHEM_FEATURE_SELFOVERLAP>
35.63

> <PUBCHEM_SHAPE_FINGERPRINT>
10 15 13623531263967937984
10162869 55 8862935057217507627
10299344 5 18272368685503300663
106641 1 13695589962076179276
11135926 11 17917421008756192047
11315181 36 18407760327588159833
11408170 108 17632019621254244502
12082328 90 18202283559332947861
12089408 11 18059855081970194613
12104220 1 17967822631159976097
12166972 35 18334857234182541588
12236239 1 18131911568439349044
12643181 29 15051727608202018829
12838862 33 12103561940186657132
13533116 47 17168694242543600706
14123256 10 17240481403686153763
14251764 18 17821445747037562746
14251764 46 18410573985151464159
14294032 229 16916243052222070601
14849402 71 18336550542066111813
14856354 85 17917991707468431079
14933364 13 18412261740106511973
15183329 4 18411411804437719132
15419008 47 16225757536870306317
15461852 350 14345799361891371403
15510794 2 17894631449097060387
1577012 14 12829756389415807581
17093844 174 13686295795093148775
18335252 98 18411984650323227823
21033648 29 17822851017999499704
21095086 128 18407758149264261279
21150785 3 13912323482198362039
21267235 1 18412545397174600332
21315763 28 18409446985749194829
21792934 111 15841546371166286642
21792961 116 17632577107048428077
22224240 67 16081087086605420321
232437 2 18409166628434522479
23516275 137 18058187063203768719
249057 3 18412261761280531806
2747138 104 17313107471106309301
28498 318 12319741358146063340
335352 9 18333455340399138902
335507 130 18413107268895869967
4017518 198 12901549010069262512
4073 2 18041281075372039314
4325135 7 18409448090046030157
5283156 175 17346883338840099414
5758199 1 17967531263770782499
59682541 35 16877665686144749641
59755656 520 17822003233661397050
6009941 240 11959724989088463309
67123 10 18410292518764675086
9663363 56 15482666875197643715

> <PUBCHEM_SHAPE_MULTIPOLES>
538.22
30.26
1.31
1.03
4.28
0.2
-0.16
-2.43
-0.37
-0.53
0.09
0.71
-0.08
-0.36

> <PUBCHEM_SHAPE_SELFOVERLAP>
1184.812

> <PUBCHEM_SHAPE_VOLUME>
294.9

> <PUBCHEM_COORDINATE_TYPE>
2
5
10

$$$$
