75368494
  -OEChem-12032416383D

 50 53  0     1  0  0  0  0  0999 V2000
   -5.7503   -2.5355   -0.2485 O   0  0  0  0  0  0  0  0  0  0  0  0
   -3.2089    2.6292    0.3510 O   0  0  0  0  0  0  0  0  0  0  0  0
    3.7666    2.5020   -0.0209 O   0  0  0  0  0  0  0  0  0  0  0  0
   -2.7309    0.3284    0.1553 N   0  0  0  0  0  0  0  0  0  0  0  0
   -1.0201    1.7756    0.3222 N   0  0  0  0  0  0  0  0  0  0  0  0
    1.6529    1.5870   -0.4150 N   0  0  0  0  0  0  0  0  0  0  0  0
   -0.3940    0.4644    0.3387 C   0  0  1  0  0  0  0  0  0  0  0  0
   -1.5394   -0.4895    0.0104 C   0  0  0  0  0  0  0  0  0  0  0  0
   -4.0562   -0.2258    0.0341 C   0  0  0  0  0  0  0  0  0  0  0  0
    0.7720    0.4251   -0.6439 C   0  0  0  0  0  0  0  0  0  0  0  0
   -0.2013    2.9694    0.4436 C   0  0  0  0  0  0  0  0  0  0  0  0
   -2.4193    1.6960    0.2881 C   0  0  0  0  0  0  0  0  0  0  0  0
    0.9837    2.8914   -0.5175 C   0  0  0  0  0  0  0  0  0  0  0  0
   -4.3646   -1.1643    1.2011 C   0  0  0  0  0  0  0  0  0  0  0  0
   -4.2285   -0.9594   -1.2967 C   0  0  0  0  0  0  0  0  0  0  0  0
   -5.7120   -1.8465    1.0010 C   0  0  0  0  0  0  0  0  0  0  0  0
   -5.5842   -1.6514   -1.3568 C   0  0  0  0  0  0  0  0  0  0  0  0
    3.0255    1.5313   -0.1682 C   0  0  0  0  0  0  0  0  0  0  0  0
    3.6556    0.2092   -0.0595 C   0  0  0  0  0  0  0  0  0  0  0  0
    4.1689   -0.4149   -1.1966 C   0  0  0  0  0  0  0  0  0  0  0  0
    3.7401   -0.4228    1.1810 C   0  0  0  0  0  0  0  0  0  0  0  0
    4.7664   -1.6709   -1.0931 C   0  0  0  0  0  0  0  0  0  0  0  0
    4.3376   -1.6790    1.2847 C   0  0  0  0  0  0  0  0  0  0  0  0
    4.8507   -2.3030    0.1476 C   0  0  0  0  0  0  0  0  0  0  0  0
    5.4899   -3.6461    0.2578 C   0  0  0  0  0  0  0  0  0  0  0  0
   -0.0370    0.2986    1.3632 H   0  0  0  0  0  0  0  0  0  0  0  0
   -1.4754   -0.8502   -1.0206 H   0  0  0  0  0  0  0  0  0  0  0  0
   -1.5557   -1.3403    0.6959 H   0  0  0  0  0  0  0  0  0  0  0  0
   -4.7729    0.6050    0.0655 H   0  0  0  0  0  0  0  0  0  0  0  0
    1.3061   -0.5229   -0.5528 H   0  0  0  0  0  0  0  0  0  0  0  0
    0.4190    0.5038   -1.6797 H   0  0  0  0  0  0  0  0  0  0  0  0
    0.1516    3.0083    1.4804 H   0  0  0  0  0  0  0  0  0  0  0  0
   -0.8102    3.8590    0.2559 H   0  0  0  0  0  0  0  0  0  0  0  0
    0.6395    2.9908   -1.5539 H   0  0  0  0  0  0  0  0  0  0  0  0
    1.6829    3.7096   -0.3196 H   0  0  0  0  0  0  0  0  0  0  0  0
   -4.3533   -0.6162    2.1502 H   0  0  0  0  0  0  0  0  0  0  0  0
   -3.5981   -1.9450    1.2717 H   0  0  0  0  0  0  0  0  0  0  0  0
   -3.4594   -1.7333   -1.4061 H   0  0  0  0  0  0  0  0  0  0  0  0
   -4.1152   -0.2670   -2.1385 H   0  0  0  0  0  0  0  0  0  0  0  0
   -5.8781   -2.5831    1.7936 H   0  0  0  0  0  0  0  0  0  0  0  0
   -6.5350   -1.1234    1.0442 H   0  0  0  0  0  0  0  0  0  0  0  0
   -6.4035   -0.9230   -1.3687 H   0  0  0  0  0  0  0  0  0  0  0  0
   -5.6587   -2.2467   -2.2725 H   0  0  0  0  0  0  0  0  0  0  0  0
    4.1080    0.0689   -2.1680 H   0  0  0  0  0  0  0  0  0  0  0  0
    3.3425    0.0545    2.0730 H   0  0  0  0  0  0  0  0  0  0  0  0
    5.1639   -2.1462   -1.9859 H   0  0  0  0  0  0  0  0  0  0  0  0
    4.3986   -2.1605    2.2570 H   0  0  0  0  0  0  0  0  0  0  0  0
    5.3530   -4.2254   -0.6616 H   0  0  0  0  0  0  0  0  0  0  0  0
    6.5623   -3.5372    0.4477 H   0  0  0  0  0  0  0  0  0  0  0  0
    5.0466   -4.2291    1.0723 H   0  0  0  0  0  0  0  0  0  0  0  0
  1 16  1  0  0  0  0
  1 17  1  0  0  0  0
  2 12  2  0  0  0  0
  3 18  2  0  0  0  0
  4  8  1  0  0  0  0
  4  9  1  0  0  0  0
  4 12  1  0  0  0  0
  5  7  1  0  0  0  0
  5 11  1  0  0  0  0
  5 12  1  0  0  0  0
  6 10  1  0  0  0  0
  6 13  1  0  0  0  0
  6 18  1  0  0  0  0
  7  8  1  0  0  0  0
  7 10  1  0  0  0  0
  7 26  1  0  0  0  0
  8 27  1  0  0  0  0
  8 28  1  0  0  0  0
  9 14  1  0  0  0  0
  9 15  1  0  0  0  0
  9 29  1  0  0  0  0
 10 30  1  0  0  0  0
 10 31  1  0  0  0  0
 11 13  1  0  0  0  0
 11 32  1  0  0  0  0
 11 33  1  0  0  0  0
 13 34  1  0  0  0  0
 13 35  1  0  0  0  0
 14 16  1  0  0  0  0
 14 36  1  0  0  0  0
 14 37  1  0  0  0  0
 15 17  1  0  0  0  0
 15 38  1  0  0  0  0
 15 39  1  0  0  0  0
 16 40  1  0  0  0  0
 16 41  1  0  0  0  0
 17 42  1  0  0  0  0
 17 43  1  0  0  0  0
 18 19  1  0  0  0  0
 19 20  2  0  0  0  0
 19 21  1  0  0  0  0
 20 22  1  0  0  0  0
 20 44  1  0  0  0  0
 21 23  2  0  0  0  0
 21 45  1  0  0  0  0
 22 24  2  0  0  0  0
 22 46  1  0  0  0  0
 23 24  1  0  0  0  0
 23 47  1  0  0  0  0
 24 25  1  0  0  0  0
 25 48  1  0  0  0  0
 25 49  1  0  0  0  0
 25 50  1  0  0  0  0
M  END
> <PUBCHEM_COMPOUND_CID>
75368494

> <PUBCHEM_CONFORMER_RMSD>
0.8

> <PUBCHEM_CONFORMER_DIVERSEORDER>
1
35
27
13
38
7
32
14
11
28
10
22
30
12
15
23
39
24
29
5
19
9
3
2
21
31
37
6
8
18
16
25
36
34
17
33
4
20
26

> <PUBCHEM_MMFF94_PARTIAL_CHARGES>
27
1 -0.56
10 0.3
11 0.3
12 0.69
13 0.3
16 0.28
17 0.28
18 0.54
19 0.09
2 -0.57
20 -0.15
21 -0.15
22 -0.15
23 -0.15
24 -0.14
25 0.14
3 -0.57
4 -0.66
44 0.15
45 0.15
46 0.15
47 0.15
5 -0.66
6 -0.66
7 0.3
8 0.3
9 0.3

> <PUBCHEM_EFFECTIVE_ROTOR_COUNT>
5.4

> <PUBCHEM_PHARMACOPHORE_FEATURES>
7
1 1 acceptor
1 2 acceptor
1 3 acceptor
5 4 5 7 8 12 rings
6 1 9 14 15 16 17 rings
6 19 20 21 22 23 24 rings
6 5 6 7 10 11 13 rings

> <PUBCHEM_HEAVY_ATOM_COUNT>
25

> <PUBCHEM_ATOM_DEF_STEREO_COUNT>
1

> <PUBCHEM_ATOM_UDEF_STEREO_COUNT>
0

> <PUBCHEM_BOND_DEF_STEREO_COUNT>
0

> <PUBCHEM_BOND_UDEF_STEREO_COUNT>
0

> <PUBCHEM_ISOTOPIC_ATOM_COUNT>
0

> <PUBCHEM_COMPONENT_COUNT>
1

> <PUBCHEM_CACTVS_TAUTO_COUNT>
3

> <PUBCHEM_CONFORMER_ID>
047E082E00000001

> <PUBCHEM_MMFF94_ENERGY>
65.4522

> <PUBCHEM_FEATURE_SELFOVERLAP>
35.621

> <PUBCHEM_SHAPE_FINGERPRINT>
10042902 136 18265619780285054606
10074138 170 16914832327464460473
10622 236 18189611649263335698
10693767 8 18198043967525523415
117089 54 18266469706752814354
11991303 11 17825388484330278525
12107183 9 18124885559730205505
12403259 226 18411134727508377052
12422481 6 17489598831212563695
12839892 36 17632578249351766423
13533116 47 18410856606916162946
13540713 5 18339099123740031828
13911852 28 18411417293422104983
13955234 65 17982171428926028961
1420 369 18341895203304615711
14251740 57 18342738533434909658
14251764 75 8646767819917533055
14347332 77 18410855452039361301
14429380 30 18335984160676102258
14528608 73 7997976756264218483
14848178 5 18409440384415940463
14848178 96 8646772183588150222
14866123 147 18267590100816668449
15042514 8 18339646620870289449
17349148 13 18130796680459576671
17492 89 18411138022011218728
17857418 61 18413387635502232839
18222031 100 18342455954187165894
19319366 153 18051695744010404108
193927 3 18410015428960266122
20028762 73 18273493481198289286
20626108 58 18410288086833471720
20645477 70 18261956344584346400
20691028 202 8213881283775606351
20775438 99 18049144859464003050
21033650 10 15719663252211380325
21279426 13 18187639202970356045
21307412 95 18051128086540081254
21478907 32 18411419497051635613
21703447 108 18410282640841626264
22061861 79 18040710398772465311
22224240 67 18127122207827860528
22393880 68 17821997680173120495
23559900 14 18408036325400341497
23569914 152 17905854056775641807
25222932 49 17910398616604254606
2748736 6 9007054626034125646
3004659 81 18186518813142778134
312423 11 18337121115227170044
314194 84 18269275827834378443
345986 75 17846788433195632881
34797466 226 16298672806002156615
4017518 198 15303893633880814074
44062 13 18263361400117371629
46194498 28 17096085925569912133
465052 167 18341900684099896478
5104073 3 18202004300322070200
56633871 153 18124041126125151632
6034566 193 9727338173840389187
76465 3 18411979148221981020
7808743 9 9510873974280269862
7970288 3 18410290281351406406
88748 71 18408609153667403473
960060 61 16805323284288178486
9709674 26 18335426785231099824

> <PUBCHEM_SHAPE_MULTIPOLES>
481.94
14.51
3.77
1.16
5.48
0.49
0.07
-15.48
0.38
-1.88
-0.21
0.23
-0.5
-0.77

> <PUBCHEM_SHAPE_SELFOVERLAP>
1027.525

> <PUBCHEM_SHAPE_VOLUME>
266.6

> <PUBCHEM_COORDINATE_TYPE>
2
5
10

$$$$
