40777958
  -OEChem-12032416173D

 61 64  0     1  0  0  0  0  0999 V2000
    8.2525   -0.0687    0.5378 F   0  0  0  0  0  0  0  0  0  0  0  0
    2.0508    3.8046   -0.9521 F   0  0  0  0  0  0  0  0  0  0  0  0
   -4.0369   -0.7370   -0.9401 O   0  0  0  0  0  0  0  0  0  0  0  0
   -5.7908   -2.6282    0.6728 O   0  0  0  0  0  0  0  0  0  0  0  0
   -6.2732   -0.1715    1.8130 O   0  0  0  0  0  0  0  0  0  0  0  0
   -1.7224   -2.4198   -1.8154 O   0  0  0  0  0  0  0  0  0  0  0  0
   -2.3746    1.5342   -1.9712 O   0  0  0  0  0  0  0  0  0  0  0  0
    0.0806   -1.8007   -0.4866 N   0  0  0  0  0  0  0  0  0  0  0  0
    2.9002   -1.2534   -0.1252 N   0  0  0  0  0  0  0  0  0  0  0  0
   -3.5724    1.9075   -0.0194 N   0  0  0  0  0  0  0  0  0  0  0  0
   -3.6651   -1.8450   -0.0885 C   0  0  2  0  0  0  0  0  0  0  0  0
   -4.6603   -1.8515    1.0667 C   0  0  1  0  0  0  0  0  0  0  0  0
   -5.0371   -0.3879    1.1665 C   0  0  1  0  0  0  0  0  0  0  0  0
   -5.0809    0.0159   -0.2977 C   0  0  1  0  0  0  0  0  0  0  0  0
   -2.2282   -1.6234    0.3637 C   0  0  0  0  0  0  0  0  0  0  0  0
   -4.8518    1.5001   -0.5201 C   0  0  0  0  0  0  0  0  0  0  0  0
   -1.2770   -1.9852   -0.7506 C   0  0  0  0  0  0  0  0  0  0  0  0
    0.6077   -1.2844    0.7787 C   0  0  0  0  0  0  0  0  0  0  0  0
    1.0645   -2.1220   -1.5172 C   0  0  0  0  0  0  0  0  0  0  0  0
    2.0702   -1.6648    1.0099 C   0  0  0  0  0  0  0  0  0  0  0  0
    2.2809   -1.2010   -1.4525 C   0  0  0  0  0  0  0  0  0  0  0  0
    4.2501   -0.9543    0.0421 C   0  0  0  0  0  0  0  0  0  0  0  0
   -2.4175    1.8919   -0.7969 C   0  0  0  0  0  0  0  0  0  0  0  0
    4.9862   -1.5900    1.0420 C   0  0  0  0  0  0  0  0  0  0  0  0
    4.8663   -0.0200   -0.7905 C   0  0  0  0  0  0  0  0  0  0  0  0
   -1.1650    2.3196   -0.1223 C   0  0  0  0  0  0  0  0  0  0  0  0
    6.3382   -1.2912    1.2096 C   0  0  0  0  0  0  0  0  0  0  0  0
    6.2184    0.2789   -0.6228 C   0  0  0  0  0  0  0  0  0  0  0  0
    6.9544   -0.3567    0.3772 C   0  0  0  0  0  0  0  0  0  0  0  0
   -0.1245    2.8724   -0.8689 C   0  0  0  0  0  0  0  0  0  0  0  0
   -1.0294    2.1679    1.2578 C   0  0  0  0  0  0  0  0  0  0  0  0
    1.0517    3.2734   -0.2354 C   0  0  0  0  0  0  0  0  0  0  0  0
    0.1469    2.5688    1.8910 C   0  0  0  0  0  0  0  0  0  0  0  0
    1.1876    3.1215    1.1445 C   0  0  0  0  0  0  0  0  0  0  0  0
   -3.7681   -2.7629   -0.6786 H   0  0  0  0  0  0  0  0  0  0  0  0
   -4.2793   -2.2673    2.0039 H   0  0  0  0  0  0  0  0  0  0  0  0
   -4.2570    0.1481    1.7181 H   0  0  0  0  0  0  0  0  0  0  0  0
   -6.0369   -0.2674   -0.7557 H   0  0  0  0  0  0  0  0  0  0  0  0
   -2.0152   -2.2877    1.2082 H   0  0  0  0  0  0  0  0  0  0  0  0
   -2.0567   -0.5881    0.6635 H   0  0  0  0  0  0  0  0  0  0  0  0
   -5.6171    2.0946   -0.0110 H   0  0  0  0  0  0  0  0  0  0  0  0
   -4.8942    1.7269   -1.5912 H   0  0  0  0  0  0  0  0  0  0  0  0
    0.0031   -1.6336    1.6193 H   0  0  0  0  0  0  0  0  0  0  0  0
    0.5148   -0.1965    0.7292 H   0  0  0  0  0  0  0  0  0  0  0  0
    0.6030   -2.0652   -2.5088 H   0  0  0  0  0  0  0  0  0  0  0  0
    1.3642   -3.1648   -1.3553 H   0  0  0  0  0  0  0  0  0  0  0  0
    2.4002   -1.1781    1.9357 H   0  0  0  0  0  0  0  0  0  0  0  0
    2.1560   -2.7497    1.1466 H   0  0  0  0  0  0  0  0  0  0  0  0
    2.9892   -1.5195   -2.2271 H   0  0  0  0  0  0  0  0  0  0  0  0
    1.9766   -0.1697   -1.6694 H   0  0  0  0  0  0  0  0  0  0  0  0
   -5.4970   -3.5523    0.5980 H   0  0  0  0  0  0  0  0  0  0  0  0
   -6.2119   -0.5662    2.6995 H   0  0  0  0  0  0  0  0  0  0  0  0
   -3.5460    2.2670    0.9289 H   0  0  0  0  0  0  0  0  0  0  0  0
    4.5404   -2.3335    1.6970 H   0  0  0  0  0  0  0  0  0  0  0  0
    4.3175    0.5030   -1.5689 H   0  0  0  0  0  0  0  0  0  0  0  0
    6.9128   -1.7881    1.9858 H   0  0  0  0  0  0  0  0  0  0  0  0
    6.6978    1.0088   -1.2684 H   0  0  0  0  0  0  0  0  0  0  0  0
   -0.2126    3.0018   -1.9442 H   0  0  0  0  0  0  0  0  0  0  0  0
   -1.8028    1.7153    1.8711 H   0  0  0  0  0  0  0  0  0  0  0  0
    0.2563    2.4433    2.9642 H   0  0  0  0  0  0  0  0  0  0  0  0
    2.1046    3.4312    1.6369 H   0  0  0  0  0  0  0  0  0  0  0  0
  1 29  1  0  0  0  0
  2 32  1  0  0  0  0
  3 11  1  0  0  0  0
  3 14  1  0  0  0  0
  4 12  1  0  0  0  0
  4 51  1  0  0  0  0
  5 13  1  0  0  0  0
  5 52  1  0  0  0  0
  6 17  2  0  0  0  0
  7 23  2  0  0  0  0
  8 17  1  0  0  0  0
  8 18  1  0  0  0  0
  8 19  1  0  0  0  0
  9 20  1  0  0  0  0
  9 21  1  0  0  0  0
  9 22  1  0  0  0  0
 10 16  1  0  0  0  0
 10 23  1  0  0  0  0
 10 53  1  0  0  0  0
 11 12  1  0  0  0  0
 11 15  1  0  0  0  0
 11 35  1  0  0  0  0
 12 13  1  0  0  0  0
 12 36  1  0  0  0  0
 13 14  1  0  0  0  0
 13 37  1  0  0  0  0
 14 16  1  0  0  0  0
 14 38  1  0  0  0  0
 15 17  1  0  0  0  0
 15 39  1  0  0  0  0
 15 40  1  0  0  0  0
 16 41  1  0  0  0  0
 16 42  1  0  0  0  0
 18 20  1  0  0  0  0
 18 43  1  0  0  0  0
 18 44  1  0  0  0  0
 19 21  1  0  0  0  0
 19 45  1  0  0  0  0
 19 46  1  0  0  0  0
 20 47  1  0  0  0  0
 20 48  1  0  0  0  0
 21 49  1  0  0  0  0
 21 50  1  0  0  0  0
 22 24  2  0  0  0  0
 22 25  1  0  0  0  0
 23 26  1  0  0  0  0
 24 27  1  0  0  0  0
 24 54  1  0  0  0  0
 25 28  2  0  0  0  0
 25 55  1  0  0  0  0
 26 30  2  0  0  0  0
 26 31  1  0  0  0  0
 27 29  2  0  0  0  0
 27 56  1  0  0  0  0
 28 29  1  0  0  0  0
 28 57  1  0  0  0  0
 30 32  1  0  0  0  0
 30 58  1  0  0  0  0
 31 33  2  0  0  0  0
 31 59  1  0  0  0  0
 32 34  2  0  0  0  0
 33 34  1  0  0  0  0
 33 60  1  0  0  0  0
 34 61  1  0  0  0  0
M  END
> <PUBCHEM_COMPOUND_CID>
40777958

> <PUBCHEM_CONFORMER_RMSD>
1.2

> <PUBCHEM_CONFORMER_DIVERSEORDER>
1
99
129
147
59
57
20
131
37
87
23
126
46
86
45
61
127
33
54
117
39
49
145
5
146
132
78
29
121
80
124
104
53
26
72
17
92
139
48
47
77
36
67
141
91
108
98
24
38
74
44
119
116
88
120
64
21
123
122
148
100
106
22
58
102
144
13
40
107
133
115
134
135
14
142
55
93
35
68
112
138
140
109
79
128
96
81
95
89
118
42
97
110
3
43
27
18
94
6
65
62
34
70
10
76
82
125
136
103
50
114
69
32
28
105
85
71
25
73
15
31
30
52
84
111
41
56
9
51
60
113
16
7
2
11
4
137
83
130
66
90
19
8
143
101
63
75
12

> <PUBCHEM_MMFF94_PARTIAL_CHARGES>
45
1 -0.19
10 -0.73
11 0.28
12 0.28
13 0.28
14 0.28
15 0.06
16 0.3
17 0.57
18 0.3
19 0.3
2 -0.19
20 0.37
21 0.37
22 0.1
23 0.54
24 -0.15
25 -0.15
26 0.09
27 -0.15
28 -0.15
29 0.19
3 -0.56
30 -0.15
31 -0.15
32 0.19
33 -0.15
34 -0.15
4 -0.68
5 -0.68
51 0.4
52 0.4
53 0.37
54 0.15
55 0.15
56 0.15
57 0.15
58 0.15
59 0.15
6 -0.57
60 0.15
61 0.15
7 -0.57
8 -0.66
9 -0.84

> <PUBCHEM_EFFECTIVE_ROTOR_COUNT>
10.2

> <PUBCHEM_PHARMACOPHORE_FEATURES>
13
1 10 donor
1 3 acceptor
1 4 acceptor
1 4 donor
1 5 acceptor
1 5 donor
1 6 acceptor
1 7 acceptor
1 9 cation
5 3 11 12 13 14 rings
6 22 24 25 27 28 29 rings
6 26 30 31 32 33 34 rings
6 8 9 18 19 20 21 rings

> <PUBCHEM_HEAVY_ATOM_COUNT>
34

> <PUBCHEM_ATOM_DEF_STEREO_COUNT>
4

> <PUBCHEM_ATOM_UDEF_STEREO_COUNT>
0

> <PUBCHEM_BOND_DEF_STEREO_COUNT>
0

> <PUBCHEM_BOND_UDEF_STEREO_COUNT>
0

> <PUBCHEM_ISOTOPIC_ATOM_COUNT>
0

> <PUBCHEM_COMPONENT_COUNT>
1

> <PUBCHEM_CACTVS_TAUTO_COUNT>
2

> <PUBCHEM_CONFORMER_ID>
026E38E600000001

> <PUBCHEM_MMFF94_ENERGY>
97.5066

> <PUBCHEM_FEATURE_SELFOVERLAP>
65.986

> <PUBCHEM_SHAPE_FINGERPRINT>
10290309 65 18265333902608695655
10675989 125 16749578848135910101
10939801 23 18339364197196241436
11578080 2 13110139504373830425
11963148 33 17257658245125335323
12107698 1 18336547209329044075
12166972 35 17676211273468056790
12422481 6 18197189624882519472
12596602 18 17676204654718173458
13111901 25 18337117851658764508
13402501 40 18341891883226207168
13726171 33 18267305317966398233
14040221 299 18411147930295828838
15064986 96 18129963268421852867
15927050 60 17692254449461094972
17492 54 18193253235689513893
18336668 15 18333170574243493140
20642791 178 18336277773008864973
20721686 56 18264203789375124747
23559900 14 18335692880368292997
25019877 29 17060623304557799350
329604 57 18334577945237870784
392239 28 18342178838670975360
4112364 45 16271654494072492931
439807 62 17967540094830067993
469060 322 18335435525373223632
77296 10 17823413782699647642

> <PUBCHEM_SHAPE_MULTIPOLES>
640.87
15.51
4.04
1.57
16.31
3.18
0.01
-6.63
4.15
-1.55
-0.18
-0.45
0.06
0.24

> <PUBCHEM_SHAPE_SELFOVERLAP>
1373.421

> <PUBCHEM_SHAPE_VOLUME>
353.4

> <PUBCHEM_COORDINATE_TYPE>
2
5
10

$$$$
