28961874
  -OEChem-12032416203D

 61 64  0     1  0  0  0  0  0999 V2000
   -8.3268    4.2129    0.7412 Cl  0  0  0  0  0  0  0  0  0  0  0  0
    9.2345    2.8761   -0.3209 F   0  0  0  0  0  0  0  0  0  0  0  0
   -1.5581   -2.2557    0.7182 O   0  0  0  0  0  0  0  0  0  0  0  0
    0.4697   -3.1293   -1.3050 O   0  0  0  0  0  0  0  0  0  0  0  0
   -2.9558   -4.6860    0.5067 O   0  0  0  0  0  0  0  0  0  0  0  0
   -3.6712   -0.7334   -0.8969 O   0  0  0  0  0  0  0  0  0  0  0  0
    1.8952   -1.1316    0.1780 N   0  0  0  0  0  0  0  0  0  0  0  0
    4.4369    0.1717    0.1616 N   0  0  0  0  0  0  0  0  0  0  0  0
   -1.9350    0.6187   -0.1840 N   0  0  0  0  0  0  0  0  0  0  0  0
   -4.0958    1.4121   -0.0440 N   0  0  0  0  0  0  0  0  0  0  0  0
    0.7919   -1.8784    0.7565 C   0  0  1  0  0  0  0  0  0  0  0  0
   -0.5799   -1.1922    0.7284 C   0  0  1  0  0  0  0  0  0  0  0  0
    0.5135   -3.2279    0.1126 C   0  0  1  0  0  0  0  0  0  0  0  0
   -0.8749   -3.5230    0.6676 C   0  0  2  0  0  0  0  0  0  0  0  0
    2.0805    0.1426    0.8833 C   0  0  0  0  0  0  0  0  0  0  0  0
    3.1338   -1.9175    0.2330 C   0  0  0  0  0  0  0  0  0  0  0  0
   -0.8724   -0.2977   -0.4712 C   0  0  0  0  0  0  0  0  0  0  0  0
    3.2037    0.9642    0.2466 C   0  0  0  0  0  0  0  0  0  0  0  0
    4.2930   -1.1645   -0.4245 C   0  0  0  0  0  0  0  0  0  0  0  0
   -1.7043   -4.5072   -0.1368 C   0  0  0  0  0  0  0  0  0  0  0  0
    5.6512    0.8562    0.0391 C   0  0  0  0  0  0  0  0  0  0  0  0
   -3.2907    0.3336   -0.4210 C   0  0  0  0  0  0  0  0  0  0  0  0
    6.0498    1.7514    1.0319 C   0  0  0  0  0  0  0  0  0  0  0  0
    6.4633    0.6433   -1.0748 C   0  0  0  0  0  0  0  0  0  0  0  0
    7.2603    2.4337    0.9107 C   0  0  0  0  0  0  0  0  0  0  0  0
    7.6737    1.3256   -1.1962 C   0  0  0  0  0  0  0  0  0  0  0  0
    8.0722    2.2209   -0.2034 C   0  0  0  0  0  0  0  0  0  0  0  0
   -5.5042    1.5139   -0.1251 C   0  0  0  0  0  0  0  0  0  0  0  0
   -6.1458    2.6774    0.2994 C   0  0  0  0  0  0  0  0  0  0  0  0
   -6.2515    0.4500   -0.6307 C   0  0  0  0  0  0  0  0  0  0  0  0
   -7.5347    2.7771    0.2184 C   0  0  0  0  0  0  0  0  0  0  0  0
   -7.6404    0.5498   -0.7116 C   0  0  0  0  0  0  0  0  0  0  0  0
   -8.2820    1.7132   -0.2870 C   0  0  0  0  0  0  0  0  0  0  0  0
    1.0137   -2.0836    1.8167 H   0  0  0  0  0  0  0  0  0  0  0  0
   -0.7206   -0.6233    1.6565 H   0  0  0  0  0  0  0  0  0  0  0  0
    1.2322   -4.0059    0.3895 H   0  0  0  0  0  0  0  0  0  0  0  0
   -0.8024   -3.8633    1.7087 H   0  0  0  0  0  0  0  0  0  0  0  0
    2.3307   -0.0427    1.9377 H   0  0  0  0  0  0  0  0  0  0  0  0
    1.1830    0.7668    0.8888 H   0  0  0  0  0  0  0  0  0  0  0  0
    3.0329   -2.8645   -0.3075 H   0  0  0  0  0  0  0  0  0  0  0  0
    3.3964   -2.1591    1.2719 H   0  0  0  0  0  0  0  0  0  0  0  0
   -1.1648   -0.9006   -1.3387 H   0  0  0  0  0  0  0  0  0  0  0  0
   -0.0299    0.3227   -0.7794 H   0  0  0  0  0  0  0  0  0  0  0  0
    2.9108    1.2867   -0.7610 H   0  0  0  0  0  0  0  0  0  0  0  0
    3.3451    1.8701    0.8472 H   0  0  0  0  0  0  0  0  0  0  0  0
    5.2074   -1.7529   -0.2773 H   0  0  0  0  0  0  0  0  0  0  0  0
    4.1117   -1.0814   -1.5040 H   0  0  0  0  0  0  0  0  0  0  0  0
   -1.2022   -5.4766   -0.2108 H   0  0  0  0  0  0  0  0  0  0  0  0
   -1.9133   -4.1252   -1.1411 H   0  0  0  0  0  0  0  0  0  0  0  0
    0.3966   -4.0312   -1.6605 H   0  0  0  0  0  0  0  0  0  0  0  0
   -1.6954    1.5172    0.2238 H   0  0  0  0  0  0  0  0  0  0  0  0
   -3.4637   -5.3214   -0.0261 H   0  0  0  0  0  0  0  0  0  0  0  0
    5.4382    1.9204    1.9144 H   0  0  0  0  0  0  0  0  0  0  0  0
    6.1782   -0.0354   -1.8736 H   0  0  0  0  0  0  0  0  0  0  0  0
    7.5725    3.1285    1.6848 H   0  0  0  0  0  0  0  0  0  0  0  0
    8.3050    1.1628   -2.0648 H   0  0  0  0  0  0  0  0  0  0  0  0
   -3.6189    2.2264    0.3348 H   0  0  0  0  0  0  0  0  0  0  0  0
   -5.5619    3.5066    0.6933 H   0  0  0  0  0  0  0  0  0  0  0  0
   -5.8284   -0.4817   -0.9783 H   0  0  0  0  0  0  0  0  0  0  0  0
   -8.2235   -0.2778   -1.1050 H   0  0  0  0  0  0  0  0  0  0  0  0
   -9.3650    1.7768   -0.3560 H   0  0  0  0  0  0  0  0  0  0  0  0
  1 31  1  0  0  0  0
  2 27  1  0  0  0  0
  3 12  1  0  0  0  0
  3 14  1  0  0  0  0
  4 13  1  0  0  0  0
  4 50  1  0  0  0  0
  5 20  1  0  0  0  0
  5 52  1  0  0  0  0
  6 22  2  0  0  0  0
  7 11  1  0  0  0  0
  7 15  1  0  0  0  0
  7 16  1  0  0  0  0
  8 18  1  0  0  0  0
  8 19  1  0  0  0  0
  8 21  1  0  0  0  0
  9 17  1  0  0  0  0
  9 22  1  0  0  0  0
  9 51  1  0  0  0  0
 10 22  1  0  0  0  0
 10 28  1  0  0  0  0
 10 57  1  0  0  0  0
 11 12  1  0  0  0  0
 11 13  1  0  0  0  0
 11 34  1  0  0  0  0
 12 17  1  0  0  0  0
 12 35  1  0  0  0  0
 13 14  1  0  0  0  0
 13 36  1  0  0  0  0
 14 20  1  0  0  0  0
 14 37  1  0  0  0  0
 15 18  1  0  0  0  0
 15 38  1  0  0  0  0
 15 39  1  0  0  0  0
 16 19  1  0  0  0  0
 16 40  1  0  0  0  0
 16 41  1  0  0  0  0
 17 42  1  0  0  0  0
 17 43  1  0  0  0  0
 18 44  1  0  0  0  0
 18 45  1  0  0  0  0
 19 46  1  0  0  0  0
 19 47  1  0  0  0  0
 20 48  1  0  0  0  0
 20 49  1  0  0  0  0
 21 23  2  0  0  0  0
 21 24  1  0  0  0  0
 23 25  1  0  0  0  0
 23 53  1  0  0  0  0
 24 26  2  0  0  0  0
 24 54  1  0  0  0  0
 25 27  2  0  0  0  0
 25 55  1  0  0  0  0
 26 27  1  0  0  0  0
 26 56  1  0  0  0  0
 28 29  2  0  0  0  0
 28 30  1  0  0  0  0
 29 31  1  0  0  0  0
 29 58  1  0  0  0  0
 30 32  2  0  0  0  0
 30 59  1  0  0  0  0
 31 33  2  0  0  0  0
 32 33  1  0  0  0  0
 32 60  1  0  0  0  0
 33 61  1  0  0  0  0
M  END
> <PUBCHEM_COMPOUND_CID>
28961874

> <PUBCHEM_CONFORMER_RMSD>
1

> <PUBCHEM_CONFORMER_DIVERSEORDER>
1
91
75
8
82
47
35
68
55
61
9
37
22
15
13
57
77
87
64
66
53
71
92
34
26
48
69
39
43
28
30
12
74
67
81
19
90
59
63
45
41
27
60
18
25
6
72
31
36
23
62
85
17
79
80
33
88
42
3
38
49
70
44
76
56
24
21
58
46
14
84
10
5
73
40
52
93
51
20
89
86
65
54
32
11
29
2
4
16
78
7
83
50

> <PUBCHEM_MMFF94_PARTIAL_CHARGES>
45
1 -0.18
10 -0.55
11 0.27
12 0.28
13 0.28
14 0.28
15 0.27
16 0.27
17 0.3
18 0.37
19 0.37
2 -0.19
20 0.28
21 0.1
22 0.69
23 -0.15
24 -0.15
25 -0.15
26 -0.15
27 0.19
28 0.12
29 -0.15
3 -0.56
30 -0.15
31 0.18
32 -0.15
33 -0.15
4 -0.68
5 -0.68
50 0.4
51 0.37
52 0.4
53 0.15
54 0.15
55 0.15
56 0.15
57 0.37
58 0.15
59 0.15
6 -0.57
60 0.15
61 0.15
7 -0.81
8 -0.84
9 -0.73

> <PUBCHEM_EFFECTIVE_ROTOR_COUNT>
10.2

> <PUBCHEM_PHARMACOPHORE_FEATURES>
14
1 10 donor
1 3 acceptor
1 4 acceptor
1 4 donor
1 5 acceptor
1 5 donor
1 6 acceptor
1 7 cation
1 8 cation
1 9 donor
5 3 11 12 13 14 rings
6 21 23 24 25 26 27 rings
6 28 29 30 31 32 33 rings
6 7 8 15 16 18 19 rings

> <PUBCHEM_HEAVY_ATOM_COUNT>
33

> <PUBCHEM_ATOM_DEF_STEREO_COUNT>
4

> <PUBCHEM_ATOM_UDEF_STEREO_COUNT>
0

> <PUBCHEM_BOND_DEF_STEREO_COUNT>
0

> <PUBCHEM_BOND_UDEF_STEREO_COUNT>
0

> <PUBCHEM_ISOTOPIC_ATOM_COUNT>
0

> <PUBCHEM_COMPONENT_COUNT>
1

> <PUBCHEM_CACTVS_TAUTO_COUNT>
3

> <PUBCHEM_CONFORMER_ID>
01B9EC5200000001

> <PUBCHEM_MMFF94_ENERGY>
98.6467

> <PUBCHEM_FEATURE_SELFOVERLAP>
71.104

> <PUBCHEM_SHAPE_FINGERPRINT>
10 15 17749107785813705001
10190206 1 18338502162642006327
10369192 42 18335417954989349365
10838868 160 18340196410743566857
10904742 90 18410291402110335381
11135609 187 18412544284677896177
11297010 23 18130795530194338638
11409948 41 15912784782926204916
1200032 147 18260266330824849810
12013929 94 18410294749398704371
12522641 68 18273494585215588799
12539765 74 18129946672156408575
12677640 9 18266179629314409629
12760667 363 10879994674527460279
13248334 5 18050003294741251043
13947947 74 18202845452534978664
14040222 383 18337949095096446961
14068700 686 18045495327406018797
14294032 229 18187357761657136453
14394314 77 18409167705796814901
14565420 104 18187926123285642707
14931854 50 17775287140385804776
15064981 194 18191035688192398444
15152005 290 18410011039492997126
15183329 4 16988847159151822768
15198563 99 17769921704506203767
15347591 1 18409730690674522386
15439362 3 18339925896443897422
15685185 35 18410294735311418749
1577012 14 18342170034568520525
15803439 3 16988560212445092887
16114785 44 18187933931874420947
16126227 98 18408885144313813941
16992610 120 18334869320446599828
16994733 274 18335416846787813361
2026 5 9655578504647223965
21033648 29 17967823738280356354
21298829 104 18409450280073870852
21360443 126 18409166649566207804
21424621 283 18411982434072422505
21521721 280 18337955593577163955
21585482 111 18337106740679311309
21781055 127 18130220446562745250
23522609 53 17459762613120999436
23523787 8 16343695517530591823
23523788 1 12613028349725162384
23528940 14 10015599277328445028
23569914 152 17558004844435552838
23729398 52 18049446941831229074
24771293 8 18333732408043695701
25269216 80 17274245254439775789
4073 2 18335705989066838419
4403749 210 18333453149702418363
44880568 143 18194688288307803396
4516262 110 18265889173951570845
45377200 153 16271348826035614919
5758199 1 18408885118639195997
5776283 40 18343580767515574585
5937810 71 17846505794879384129
6057620 51 18342450402039871729
6327066 14 18410012143484396942
6712543 237 14779268596605952857
9689198 14 18272091586771496541
9980921 177 18188755177698415056

> <PUBCHEM_SHAPE_MULTIPOLES>
630.32
27.34
5.34
0.98
1.52
4.81
-0.05
-42.44
-2.94
4.3
0.97
-0.59
-0.03
-0.65

> <PUBCHEM_SHAPE_SELFOVERLAP>
1332.007

> <PUBCHEM_SHAPE_VOLUME>
353.3

> <PUBCHEM_COORDINATE_TYPE>
2
5
10

$$$$
