45784372
  -OEChem-12032416353D

 76 79  0     1  0  0  0  0  0999 V2000
   -2.4329   -2.2955   -1.7499 O   0  0  0  0  0  0  0  0  0  0  0  0
   -4.7099   -0.2334   -2.3012 O   0  0  0  0  0  0  0  0  0  0  0  0
    3.9944   -2.1755    0.7221 O   0  0  0  0  0  0  0  0  0  0  0  0
    6.0469   -0.8553   -0.4143 O   0  0  0  0  0  0  0  0  0  0  0  0
    2.4422   -0.6362   -0.0700 N   0  0  0  0  0  0  0  0  0  0  0  0
   -5.6838    0.4356   -0.3052 N   0  0  0  0  0  0  0  0  0  0  0  0
   -1.4645   -0.9903    1.7047 C   0  0  1  0  0  0  0  0  0  0  0  0
   -1.2712   -1.6152    0.2829 C   0  0  2  0  0  0  0  0  0  0  0  0
    0.0125   -1.0355   -0.4126 C   0  0  1  0  0  0  0  0  0  0  0  0
   -2.5805   -1.5301   -0.5530 C   0  0  2  0  0  0  0  0  0  0  0  0
   -2.6684   -1.6637    2.4049 C   0  0  0  0  0  0  0  0  0  0  0  0
   -0.2055   -1.2749    2.5560 C   0  0  0  0  0  0  0  0  0  0  0  0
   -3.8027   -2.1115    0.1954 C   0  0  1  0  0  0  0  0  0  0  0  0
    1.2605   -1.2607    0.4866 C   0  0  2  0  0  0  0  0  0  0  0  0
   -3.9607   -1.5479    1.6074 C   0  0  0  0  0  0  0  0  0  0  0  0
    1.0763   -0.7584    1.9184 C   0  0  0  0  0  0  0  0  0  0  0  0
   -1.7103    0.5389    1.6529 C   0  0  0  0  0  0  0  0  0  0  0  0
   -5.1035   -1.9004   -0.5891 C   0  0  2  0  0  0  0  0  0  0  0  0
    0.2794   -1.6296   -1.8060 C   0  0  0  0  0  0  0  0  0  0  0  0
   -5.2384   -2.9602   -1.6769 C   0  0  0  0  0  0  0  0  0  0  0  0
   -5.1337   -0.4930   -1.1769 C   0  0  0  0  0  0  0  0  0  0  0  0
    3.7146   -1.1547    0.0994 C   0  0  0  0  0  0  0  0  0  0  0  0
    4.7596   -0.3023   -0.5882 C   0  0  0  0  0  0  0  0  0  0  0  0
   -5.8181    1.8349   -0.6371 C   0  0  0  0  0  0  0  0  0  0  0  0
   -4.6082    2.6267   -0.2333 C   0  0  0  0  0  0  0  0  0  0  0  0
    7.1076    0.0193   -0.3907 C   0  0  0  0  0  0  0  0  0  0  0  0
   -4.5432    3.2035    1.0351 C   0  0  0  0  0  0  0  0  0  0  0  0
   -3.5490    2.7858   -1.1268 C   0  0  0  0  0  0  0  0  0  0  0  0
    7.0453    1.2110   -1.1130 C   0  0  0  0  0  0  0  0  0  0  0  0
    8.2459   -0.2852    0.3556 C   0  0  0  0  0  0  0  0  0  0  0  0
   -3.4191    3.9393    1.4101 C   0  0  0  0  0  0  0  0  0  0  0  0
   -2.4248    3.5216   -0.7520 C   0  0  0  0  0  0  0  0  0  0  0  0
   -2.3598    4.0984    0.5164 C   0  0  0  0  0  0  0  0  0  0  0  0
    8.1214    2.0983   -1.0890 C   0  0  0  0  0  0  0  0  0  0  0  0
    9.3220    0.6020    0.3797 C   0  0  0  0  0  0  0  0  0  0  0  0
    9.2597    1.7938   -0.3426 C   0  0  0  0  0  0  0  0  0  0  0  0
   -1.0687   -2.6896    0.4206 H   0  0  0  0  0  0  0  0  0  0  0  0
   -0.1218    0.0434   -0.5616 H   0  0  0  0  0  0  0  0  0  0  0  0
   -2.7139   -0.4851   -0.8412 H   0  0  0  0  0  0  0  0  0  0  0  0
   -2.8218   -1.2276    3.4003 H   0  0  0  0  0  0  0  0  0  0  0  0
   -2.4532   -2.7284    2.5675 H   0  0  0  0  0  0  0  0  0  0  0  0
   -0.3130   -0.8306    3.5537 H   0  0  0  0  0  0  0  0  0  0  0  0
   -0.1027   -2.3572    2.7119 H   0  0  0  0  0  0  0  0  0  0  0  0
   -3.6455   -3.1941    0.3113 H   0  0  0  0  0  0  0  0  0  0  0  0
    1.4504   -2.3419    0.5359 H   0  0  0  0  0  0  0  0  0  0  0  0
   -4.7505   -2.0955    2.1370 H   0  0  0  0  0  0  0  0  0  0  0  0
   -4.2714   -0.5014    1.5997 H   0  0  0  0  0  0  0  0  0  0  0  0
    1.0917    0.3382    1.9392 H   0  0  0  0  0  0  0  0  0  0  0  0
    1.9288   -1.0722    2.5347 H   0  0  0  0  0  0  0  0  0  0  0  0
   -0.8658    1.0920    1.2346 H   0  0  0  0  0  0  0  0  0  0  0  0
   -1.8874    0.9368    2.6588 H   0  0  0  0  0  0  0  0  0  0  0  0
   -2.5805    0.7895    1.0453 H   0  0  0  0  0  0  0  0  0  0  0  0
   -5.9657   -2.0278    0.0790 H   0  0  0  0  0  0  0  0  0  0  0  0
   -0.4565   -1.2755   -2.5334 H   0  0  0  0  0  0  0  0  0  0  0  0
    1.2523   -1.3219   -2.2026 H   0  0  0  0  0  0  0  0  0  0  0  0
    0.2629   -2.7240   -1.7814 H   0  0  0  0  0  0  0  0  0  0  0  0
    2.3307    0.2520   -0.5511 H   0  0  0  0  0  0  0  0  0  0  0  0
   -2.2387   -3.2146   -1.4982 H   0  0  0  0  0  0  0  0  0  0  0  0
   -5.0711   -3.9689   -1.2853 H   0  0  0  0  0  0  0  0  0  0  0  0
   -6.2588   -2.9367   -2.0790 H   0  0  0  0  0  0  0  0  0  0  0  0
   -4.5820   -2.8029   -2.5360 H   0  0  0  0  0  0  0  0  0  0  0  0
   -6.0427    0.1310    0.5944 H   0  0  0  0  0  0  0  0  0  0  0  0
    4.6787    0.6984   -0.1427 H   0  0  0  0  0  0  0  0  0  0  0  0
    4.5230   -0.2561   -1.6574 H   0  0  0  0  0  0  0  0  0  0  0  0
   -6.7113    2.2105   -0.1250 H   0  0  0  0  0  0  0  0  0  0  0  0
   -6.0017    1.9402   -1.7129 H   0  0  0  0  0  0  0  0  0  0  0  0
   -5.3605    3.0841    1.7413 H   0  0  0  0  0  0  0  0  0  0  0  0
   -3.5860    2.3439   -2.1186 H   0  0  0  0  0  0  0  0  0  0  0  0
    6.1885    1.4720   -1.7271 H   0  0  0  0  0  0  0  0  0  0  0  0
    8.2998   -1.2119    0.9202 H   0  0  0  0  0  0  0  0  0  0  0  0
   -3.3676    4.3869    2.3983 H   0  0  0  0  0  0  0  0  0  0  0  0
   -1.5996    3.6445   -1.4472 H   0  0  0  0  0  0  0  0  0  0  0  0
   -1.4839    4.6700    0.8088 H   0  0  0  0  0  0  0  0  0  0  0  0
    8.0759    3.0235   -1.6561 H   0  0  0  0  0  0  0  0  0  0  0  0
   10.2085    0.3649    0.9605 H   0  0  0  0  0  0  0  0  0  0  0  0
   10.0982    2.4839   -0.3250 H   0  0  0  0  0  0  0  0  0  0  0  0
  1 10  1  0  0  0  0
  1 58  1  0  0  0  0
  2 21  2  0  0  0  0
  3 22  2  0  0  0  0
  4 23  1  0  0  0  0
  4 26  1  0  0  0  0
  5 14  1  0  0  0  0
  5 22  1  0  0  0  0
  5 57  1  0  0  0  0
  6 21  1  0  0  0  0
  6 24  1  0  0  0  0
  6 62  1  0  0  0  0
  7  8  1  0  0  0  0
  7 11  1  0  0  0  0
  7 12  1  0  0  0  0
  7 17  1  0  0  0  0
  8  9  1  0  0  0  0
  8 10  1  0  0  0  0
  8 37  1  0  0  0  0
  9 14  1  0  0  0  0
  9 19  1  0  0  0  0
  9 38  1  0  0  0  0
 10 13  1  0  0  0  0
 10 39  1  0  0  0  0
 11 15  1  0  0  0  0
 11 40  1  0  0  0  0
 11 41  1  0  0  0  0
 12 16  1  0  0  0  0
 12 42  1  0  0  0  0
 12 43  1  0  0  0  0
 13 15  1  0  0  0  0
 13 18  1  0  0  0  0
 13 44  1  0  0  0  0
 14 16  1  0  0  0  0
 14 45  1  0  0  0  0
 15 46  1  0  0  0  0
 15 47  1  0  0  0  0
 16 48  1  0  0  0  0
 16 49  1  0  0  0  0
 17 50  1  0  0  0  0
 17 51  1  0  0  0  0
 17 52  1  0  0  0  0
 18 20  1  0  0  0  0
 18 21  1  0  0  0  0
 18 53  1  0  0  0  0
 19 54  1  0  0  0  0
 19 55  1  0  0  0  0
 19 56  1  0  0  0  0
 20 59  1  0  0  0  0
 20 60  1  0  0  0  0
 20 61  1  0  0  0  0
 22 23  1  0  0  0  0
 23 63  1  0  0  0  0
 23 64  1  0  0  0  0
 24 25  1  0  0  0  0
 24 65  1  0  0  0  0
 24 66  1  0  0  0  0
 25 27  2  0  0  0  0
 25 28  1  0  0  0  0
 26 29  2  0  0  0  0
 26 30  1  0  0  0  0
 27 31  1  0  0  0  0
 27 67  1  0  0  0  0
 28 32  2  0  0  0  0
 28 68  1  0  0  0  0
 29 34  1  0  0  0  0
 29 69  1  0  0  0  0
 30 35  2  0  0  0  0
 30 70  1  0  0  0  0
 31 33  2  0  0  0  0
 31 71  1  0  0  0  0
 32 33  1  0  0  0  0
 32 72  1  0  0  0  0
 33 73  1  0  0  0  0
 34 36  2  0  0  0  0
 34 74  1  0  0  0  0
 35 36  1  0  0  0  0
 35 75  1  0  0  0  0
 36 76  1  0  0  0  0
M  END
> <PUBCHEM_COMPOUND_CID>
45784372

> <PUBCHEM_CONFORMER_RMSD>
1.4

> <PUBCHEM_CONFORMER_DIVERSEORDER>
1
71
105
6
63
84
28
70
87
78
82
39
98
54
73
22
57
43
50
25
99
56
66
104
38
27
75
95
60
30
24
26
53
47
107
33
103
101
77
65
108
81
76
110
46
91
35
68
12
74
86
59
100
20
8
42
80
5
40
90
79
10
11
29
102
89
14
106
32
93
67
37
55
96
97
16
21
15
62
88
9
51
72
61
34
19
36
18
111
109
58
45
83
23
44
3
85
13
7
48
69
17
49
94
41
64
92
31
52
4
2

> <PUBCHEM_MMFF94_PARTIAL_CHARGES>
38
1 -0.68
10 0.28
14 0.3
18 0.06
2 -0.57
21 0.57
22 0.57
23 0.34
24 0.44
25 -0.14
26 0.08
27 -0.15
28 -0.15
29 -0.15
3 -0.57
30 -0.15
31 -0.15
32 -0.15
33 -0.15
34 -0.15
35 -0.15
36 -0.15
4 -0.36
5 -0.73
57 0.37
58 0.4
6 -0.73
62 0.37
67 0.15
68 0.15
69 0.15
70 0.15
71 0.15
72 0.15
73 0.15
74 0.15
75 0.15
76 0.15

> <PUBCHEM_EFFECTIVE_ROTOR_COUNT>
11.6

> <PUBCHEM_PHARMACOPHORE_FEATURES>
12
1 1 acceptor
1 1 donor
1 2 acceptor
1 20 hydrophobe
1 3 acceptor
1 4 acceptor
1 5 donor
1 6 donor
6 25 27 28 31 32 33 rings
6 26 29 30 34 35 36 rings
6 7 8 10 11 13 15 rings
6 7 8 9 12 14 16 rings

> <PUBCHEM_HEAVY_ATOM_COUNT>
36

> <PUBCHEM_ATOM_DEF_STEREO_COUNT>
6

> <PUBCHEM_ATOM_UDEF_STEREO_COUNT>
1

> <PUBCHEM_BOND_DEF_STEREO_COUNT>
0

> <PUBCHEM_BOND_UDEF_STEREO_COUNT>
0

> <PUBCHEM_ISOTOPIC_ATOM_COUNT>
0

> <PUBCHEM_COMPONENT_COUNT>
1

> <PUBCHEM_CACTVS_TAUTO_COUNT>
4

> <PUBCHEM_CONFORMER_ID>
02BA9D3400000001

> <PUBCHEM_MMFF94_ENERGY>
107.3735

> <PUBCHEM_FEATURE_SELFOVERLAP>
60.918

> <PUBCHEM_SHAPE_FINGERPRINT>
10076449 9 17704071824374401043
10165383 225 17703791385065044363
10291535 26 18334863792712919547
10454371 7 18412548686940467452
10554248 39 17273425980970146646
10670039 82 18410285917521559293
11007060 377 17458623380670220910
11103572 155 9511192845764710180
11476731 118 18338233873304830952
11477941 20 18271799151133302477
11578080 2 17915754071855910479
12082328 90 18411416224234055894
12539745 222 16443642292958474211
13726171 33 18123472679595637409
14713325 29 18342174411462033055
14930077 153 18341612659123856196
15289351 153 18333726924213808208
15351334 14 15122960491315691520
15406563 42 18201159841490726639
15604295 49 18129654327520097176
15876981 60 18335703884137173055
15975801 100 17896590692101389612
16120349 21 10159698001823035104
20766409 102 18190758603142438132
20771845 165 18058738987711612095
22122407 14 18261966236321615500
328310 18 18333450919975789121
4169191 19 17821446868272154746
4197921 191 18337383829976324139
437795 83 18410014347235461412
445580 204 18259702285718129360
44802255 64 18202282515387305671
4616759 239 17603867857498115802
50677037 204 18114467756119480492
563151 74 14707204383896658768
563151 97 18335421231991821762
5776283 40 18059850619869134793
58260988 114 10087630512206902409
6057620 51 18335131016762035647
6201320 215 18339355263485099744
9962374 69 12175626167062228116

> <PUBCHEM_SHAPE_MULTIPOLES>
707.42
23.14
4.33
2.01
72.68
4.92
0.56
10.06
-6.79
-7.69
0.06
-2.26
-0.83
-1.97

> <PUBCHEM_SHAPE_SELFOVERLAP>
1491.069

> <PUBCHEM_SHAPE_VOLUME>
392.7

> <PUBCHEM_COORDINATE_TYPE>
2
5
10

$$$$
