75366995
  -OEChem-12032416383D

 62 64  0     1  0  0  0  0  0999 V2000
    3.1264   -0.4425    0.6295 O   0  0  0  0  0  0  0  0  0  0  0  0
    5.8467    0.4927    1.2726 O   0  0  0  0  0  0  0  0  0  0  0  0
   -0.6510   -3.1470   -0.9381 O   0  0  0  0  0  0  0  0  0  0  0  0
    1.5660    3.6245    0.1140 O   0  0  0  0  0  0  0  0  0  0  0  0
   -2.8173   -1.1308   -0.4042 O   0  0  0  0  0  0  0  0  0  0  0  0
    1.5487    1.4759   -0.7569 N   0  0  0  0  0  0  0  0  0  0  0  0
    0.7243   -3.3310   -1.0139 N   0  0  0  0  0  0  0  0  0  0  0  0
    3.7005    0.8057    0.2200 C   0  0  1  0  0  0  0  0  0  0  0  0
    5.2141    0.6800    0.0038 C   0  0  2  0  0  0  0  0  0  0  0  0
    3.3782   -1.5441   -0.2462 C   0  0  1  0  0  0  0  0  0  0  0  0
    5.5783   -0.5112   -0.8782 C   0  0  0  0  0  0  0  0  0  0  0  0
    4.8802   -1.7801   -0.3972 C   0  0  0  0  0  0  0  0  0  0  0  0
    2.9699    1.3754   -0.9941 C   0  0  0  0  0  0  0  0  0  0  0  0
    2.6938   -2.7686    0.3491 C   0  0  0  0  0  0  0  0  0  0  0  0
    1.2109   -2.7591    0.0911 C   0  0  0  0  0  0  0  0  0  0  0  0
   -0.5576    2.4563   -0.0489 C   0  0  0  0  0  0  0  0  0  0  0  0
    0.9579    2.6082   -0.2151 C   0  0  0  0  0  0  0  0  0  0  0  0
   -0.8784    1.7680    1.2935 C   0  0  0  0  0  0  0  0  0  0  0  0
   -1.2962    3.7977   -0.1993 C   0  0  0  0  0  0  0  0  0  0  0  0
    0.1999   -2.2034    0.8941 C   0  0  0  0  0  0  0  0  0  0  0  0
   -0.9509   -2.4744    0.2024 C   0  0  0  0  0  0  0  0  0  0  0  0
   -0.4613    2.5558    2.5292 C   0  0  0  0  0  0  0  0  0  0  0  0
   -1.0322    4.4588   -1.5472 C   0  0  0  0  0  0  0  0  0  0  0  0
   -2.3713   -2.1933    0.4431 C   0  0  0  0  0  0  0  0  0  0  0  0
   -4.1103   -0.7208   -0.2374 C   0  0  0  0  0  0  0  0  0  0  0  0
   -4.9183   -1.3335    0.7204 C   0  0  0  0  0  0  0  0  0  0  0  0
   -4.6218    0.3105   -1.0249 C   0  0  0  0  0  0  0  0  0  0  0  0
   -6.2381   -0.9150    0.8905 C   0  0  0  0  0  0  0  0  0  0  0  0
   -5.9415    0.7291   -0.8547 C   0  0  0  0  0  0  0  0  0  0  0  0
   -6.7496    0.1163    0.1029 C   0  0  0  0  0  0  0  0  0  0  0  0
    3.5318    1.4823    1.0676 H   0  0  0  0  0  0  0  0  0  0  0  0
    5.6166    1.6068   -0.4198 H   0  0  0  0  0  0  0  0  0  0  0  0
    2.9464   -1.3328   -1.2318 H   0  0  0  0  0  0  0  0  0  0  0  0
    6.6618   -0.6776   -0.8733 H   0  0  0  0  0  0  0  0  0  0  0  0
    5.2850   -0.3077   -1.9148 H   0  0  0  0  0  0  0  0  0  0  0  0
    5.0735   -2.5985   -1.1000 H   0  0  0  0  0  0  0  0  0  0  0  0
    5.3080   -2.0729    0.5700 H   0  0  0  0  0  0  0  0  0  0  0  0
    3.0895    0.7471   -1.8812 H   0  0  0  0  0  0  0  0  0  0  0  0
    3.3630    2.3687   -1.2381 H   0  0  0  0  0  0  0  0  0  0  0  0
    2.8635   -2.8171    1.4323 H   0  0  0  0  0  0  0  0  0  0  0  0
    3.1098   -3.6872   -0.0844 H   0  0  0  0  0  0  0  0  0  0  0  0
    0.9739    0.6684   -0.9793 H   0  0  0  0  0  0  0  0  0  0  0  0
    6.8068    0.4630    1.1207 H   0  0  0  0  0  0  0  0  0  0  0  0
   -0.9179    1.7949   -0.8494 H   0  0  0  0  0  0  0  0  0  0  0  0
   -0.3778    0.7936    1.3260 H   0  0  0  0  0  0  0  0  0  0  0  0
   -1.9555    1.5682    1.3481 H   0  0  0  0  0  0  0  0  0  0  0  0
   -0.9932    4.5016    0.5836 H   0  0  0  0  0  0  0  0  0  0  0  0
   -2.3747    3.6339   -0.0880 H   0  0  0  0  0  0  0  0  0  0  0  0
    0.2930   -1.6839    1.8363 H   0  0  0  0  0  0  0  0  0  0  0  0
    0.6129    2.7614    2.5358 H   0  0  0  0  0  0  0  0  0  0  0  0
   -0.6906    1.9763    3.4298 H   0  0  0  0  0  0  0  0  0  0  0  0
   -1.0003    3.5040    2.6067 H   0  0  0  0  0  0  0  0  0  0  0  0
    0.0145    4.7519   -1.6657 H   0  0  0  0  0  0  0  0  0  0  0  0
   -1.6400    5.3646   -1.6427 H   0  0  0  0  0  0  0  0  0  0  0  0
   -1.2982    3.7877   -2.3702 H   0  0  0  0  0  0  0  0  0  0  0  0
   -2.9452   -3.1065    0.2403 H   0  0  0  0  0  0  0  0  0  0  0  0
   -2.4762   -1.9075    1.4977 H   0  0  0  0  0  0  0  0  0  0  0  0
   -4.5941   -2.1437    1.3640 H   0  0  0  0  0  0  0  0  0  0  0  0
   -3.9962    0.7925   -1.7713 H   0  0  0  0  0  0  0  0  0  0  0  0
   -6.8688   -1.3923    1.6350 H   0  0  0  0  0  0  0  0  0  0  0  0
   -6.3396    1.5325   -1.4676 H   0  0  0  0  0  0  0  0  0  0  0  0
   -7.7772    0.4421    0.2352 H   0  0  0  0  0  0  0  0  0  0  0  0
  1  8  1  0  0  0  0
  1 10  1  0  0  0  0
  2  9  1  0  0  0  0
  2 43  1  0  0  0  0
  3  7  1  0  0  0  0
  3 21  1  0  0  0  0
  4 17  2  0  0  0  0
  5 24  1  0  0  0  0
  5 25  1  0  0  0  0
  6 13  1  0  0  0  0
  6 17  1  0  0  0  0
  6 42  1  0  0  0  0
  7 15  2  0  0  0  0
  8  9  1  0  0  0  0
  8 13  1  0  0  0  0
  8 31  1  0  0  0  0
  9 11  1  0  0  0  0
  9 32  1  0  0  0  0
 10 12  1  0  0  0  0
 10 14  1  0  0  0  0
 10 33  1  0  0  0  0
 11 12  1  0  0  0  0
 11 34  1  0  0  0  0
 11 35  1  0  0  0  0
 12 36  1  0  0  0  0
 12 37  1  0  0  0  0
 13 38  1  0  0  0  0
 13 39  1  0  0  0  0
 14 15  1  0  0  0  0
 14 40  1  0  0  0  0
 14 41  1  0  0  0  0
 15 20  1  0  0  0  0
 16 17  1  0  0  0  0
 16 18  1  0  0  0  0
 16 19  1  0  0  0  0
 16 44  1  0  0  0  0
 18 22  1  0  0  0  0
 18 45  1  0  0  0  0
 18 46  1  0  0  0  0
 19 23  1  0  0  0  0
 19 47  1  0  0  0  0
 19 48  1  0  0  0  0
 20 21  2  0  0  0  0
 20 49  1  0  0  0  0
 21 24  1  0  0  0  0
 22 50  1  0  0  0  0
 22 51  1  0  0  0  0
 22 52  1  0  0  0  0
 23 53  1  0  0  0  0
 23 54  1  0  0  0  0
 23 55  1  0  0  0  0
 24 56  1  0  0  0  0
 24 57  1  0  0  0  0
 25 26  2  0  0  0  0
 25 27  1  0  0  0  0
 26 28  1  0  0  0  0
 26 58  1  0  0  0  0
 27 29  2  0  0  0  0
 27 59  1  0  0  0  0
 28 30  2  0  0  0  0
 28 60  1  0  0  0  0
 29 30  1  0  0  0  0
 29 61  1  0  0  0  0
 30 62  1  0  0  0  0
M  END
> <PUBCHEM_COMPOUND_CID>
75366995

> <PUBCHEM_CONFORMER_RMSD>
1.2

> <PUBCHEM_CONFORMER_DIVERSEORDER>
1
90
189
152
134
59
183
79
182
139
184
85
188
167
174
147
112
93
146
64
73
125
143
154
114
169
178
119
109
158
115
33
133
180
117
135
179
127
155
110
165
55
187
53
60
131
149
52
78
137
24
82
181
132
116
185
164
2
22
172
43
138
168
126
156
141
148
128
123
88
86
27
105
124
75
92
142
61
130
48
171
57
136
175
140
15
30
19
163
111
144
162
108
113
18
89
170
77
120
159
74
121
29
34
45
51
14
97
157
151
173
91
42
8
38
129
31
80
104
101
41
56
69
153
160
20
81
47
100
46
84
145
49
58
72
106
54
94
17
62
71
96
6
95
9
99
122
37
68
107
118
7
87
83
76
70
177
10
36
23
26
39
161
5
50
28
21
186
32
67
98
44
16
103
65
176
150
166
35
102
25
63
66
3
40
11
13
12
4

> <PUBCHEM_MMFF94_PARTIAL_CHARGES>
32
1 -0.56
10 0.28
13 0.3
14 0.18
15 0.11
16 0.06
17 0.57
2 -0.68
20 -0.15
21 -0.04
24 0.46
25 0.08
26 -0.15
27 -0.15
28 -0.15
29 -0.15
3 -0.02
30 -0.15
4 -0.57
42 0.37
43 0.4
49 0.15
5 -0.36
58 0.15
59 0.15
6 -0.73
60 0.15
61 0.15
62 0.15
7 -0.41
8 0.28
9 0.28

> <PUBCHEM_EFFECTIVE_ROTOR_COUNT>
12.2

> <PUBCHEM_PHARMACOPHORE_FEATURES>
12
1 1 acceptor
1 2 acceptor
1 2 donor
1 22 hydrophobe
1 23 hydrophobe
1 4 acceptor
1 5 acceptor
1 6 donor
1 7 acceptor
5 3 7 15 20 21 rings
6 1 8 9 10 11 12 rings
6 25 26 27 28 29 30 rings

> <PUBCHEM_HEAVY_ATOM_COUNT>
30

> <PUBCHEM_ATOM_DEF_STEREO_COUNT>
3

> <PUBCHEM_ATOM_UDEF_STEREO_COUNT>
0

> <PUBCHEM_BOND_DEF_STEREO_COUNT>
0

> <PUBCHEM_BOND_UDEF_STEREO_COUNT>
0

> <PUBCHEM_ISOTOPIC_ATOM_COUNT>
0

> <PUBCHEM_COMPONENT_COUNT>
1

> <PUBCHEM_CACTVS_TAUTO_COUNT>
2

> <PUBCHEM_CONFORMER_ID>
047E025300000001

> <PUBCHEM_MMFF94_ENERGY>
54.4386

> <PUBCHEM_FEATURE_SELFOVERLAP>
60.899

> <PUBCHEM_SHAPE_FINGERPRINT>
10006869 2 18337942386347532718
10190206 1 17975734785394803948
10670039 82 18267319638062310310
1100329 8 18267304416260115954
11513181 2 17986951839274501591
11646440 116 18271816751887831835
12788726 201 18261669281776192840
12838862 33 18339061775057041704
13402501 40 18335138691772946615
14117953 113 18411703188278580516
14394314 77 18341334465592226649
14464042 87 18201727232123872379
14681490 219 18410569557620593469
14725015 67 18335692806952331482
14840074 17 18060135427734581575
150020 26 18047202018570180617
15081414 286 18412833481689293446
15238133 3 18041281075693857366
15483637 11 17976256842247122349
16112460 7 18269847547874427832
21298829 104 18343024372225058825
21304303 64 18410018723991349835
22113638 7 18339642377057030990
24893992 56 18335704979870894835
3014063 31 18410011009486287470
3027735 51 18340491045525828781
338550 245 18334581230434574772
3680242 22 18261392221772882219
5265222 85 17327190247520396084
550186 83 17750494317052432345
58260988 647 14346618412429110184
653340 110 18266736892187850840

> <PUBCHEM_SHAPE_MULTIPOLES>
578.08
13.4
5.16
1.32
8.58
3.18
-0.49
-3.65
0.57
-0.4
0.75
0.22
0.82
0.72

> <PUBCHEM_SHAPE_SELFOVERLAP>
1195.477

> <PUBCHEM_SHAPE_VOLUME>
330.4

> <PUBCHEM_COORDINATE_TYPE>
2
5
10

$$$$
