40777095
  -OEChem-12032416373D

 58 61  0     1  0  0  0  0  0999 V2000
   -3.2997   -2.5293    1.7991 Br  0  0  0  0  0  0  0  0  0  0  0  0
    5.0370    0.4731    1.8474 O   0  0  0  0  0  0  0  0  0  0  0  0
    9.0923   -1.8735   -0.0646 O   0  0  0  0  0  0  0  0  0  0  0  0
    7.3484   -2.7917   -1.1933 O   0  0  0  0  0  0  0  0  0  0  0  0
    0.9563    2.5290    1.2854 N   0  0  2  0  0  0  0  0  0  0  0  0
    3.2230   -0.4101    0.6903 N   0  0  0  0  0  0  0  0  0  0  0  0
   -1.4000    0.2661   -1.9002 N   0  0  0  0  0  0  0  0  0  0  0  0
   -3.3542   -1.1135   -1.6078 N   0  0  0  0  0  0  0  0  0  0  0  0
    0.3846    2.4141   -1.2529 C   0  0  2  0  0  0  0  0  0  0  0  0
   -0.8794    2.1239   -0.3970 C   0  0  2  0  0  0  0  0  0  0  0  0
    1.9359    1.6590    0.5827 C   0  0  2  0  0  0  0  0  0  0  0  0
    1.4964    1.4121   -0.8766 C   0  0  0  0  0  0  0  0  0  0  0  0
    0.8834    3.8180   -0.8485 C   0  0  0  0  0  0  0  0  0  0  0  0
   -0.4198    2.0105    1.0846 C   0  0  0  0  0  0  0  0  0  0  0  0
    1.0341    3.8808    0.6816 C   0  0  0  0  0  0  0  0  0  0  0  0
    2.1932    0.3489    1.3302 C   0  0  0  0  0  0  0  0  0  0  0  0
   -1.7789    0.9687   -0.8126 C   0  0  0  0  0  0  0  0  0  0  0  0
   -2.9163    0.6948   -0.0808 C   0  0  0  0  0  0  0  0  0  0  0  0
   -3.6733   -0.3684   -0.5293 C   0  0  0  0  0  0  0  0  0  0  0  0
    4.5779   -0.2886    1.0007 C   0  0  0  0  0  0  0  0  0  0  0  0
   -2.2215   -0.7465   -2.2370 C   0  0  0  0  0  0  0  0  0  0  0  0
    5.4401   -1.2153    0.1625 C   0  0  0  0  0  0  0  0  0  0  0  0
   -4.8875   -0.7569    0.1477 C   0  0  0  0  0  0  0  0  0  0  0  0
   -1.8367   -1.5457   -3.4358 C   0  0  0  0  0  0  0  0  0  0  0  0
    6.9235   -1.0903    0.4943 C   0  0  0  0  0  0  0  0  0  0  0  0
   -4.8905   -1.6896    1.1848 C   0  0  0  0  0  0  0  0  0  0  0  0
   -6.0833   -0.1696   -0.2657 C   0  0  0  0  0  0  0  0  0  0  0  0
    7.7712   -2.0120   -0.3511 C   0  0  0  0  0  0  0  0  0  0  0  0
   -6.0894   -2.0350    1.8086 C   0  0  0  0  0  0  0  0  0  0  0  0
   -7.2821   -0.5151    0.3581 C   0  0  0  0  0  0  0  0  0  0  0  0
   -7.2852   -1.4477    1.3952 C   0  0  0  0  0  0  0  0  0  0  0  0
    0.1714    2.3789   -2.3264 H   0  0  0  0  0  0  0  0  0  0  0  0
   -1.5210    3.0148   -0.4819 H   0  0  0  0  0  0  0  0  0  0  0  0
    2.8974    2.1935    0.5597 H   0  0  0  0  0  0  0  0  0  0  0  0
    1.1381    0.3873   -1.0244 H   0  0  0  0  0  0  0  0  0  0  0  0
    2.3563    1.5494   -1.5442 H   0  0  0  0  0  0  0  0  0  0  0  0
    0.1777    4.5866   -1.1847 H   0  0  0  0  0  0  0  0  0  0  0  0
    1.8453    4.0258   -1.3328 H   0  0  0  0  0  0  0  0  0  0  0  0
   -1.1091    2.5830    1.7199 H   0  0  0  0  0  0  0  0  0  0  0  0
   -0.4870    0.9810    1.4552 H   0  0  0  0  0  0  0  0  0  0  0  0
    1.9888    4.3537    0.9428 H   0  0  0  0  0  0  0  0  0  0  0  0
    0.2589    4.5262    1.1140 H   0  0  0  0  0  0  0  0  0  0  0  0
    1.3043   -0.2890    1.3593 H   0  0  0  0  0  0  0  0  0  0  0  0
    2.4924    0.5547    2.3645 H   0  0  0  0  0  0  0  0  0  0  0  0
    2.9455   -1.0692   -0.0315 H   0  0  0  0  0  0  0  0  0  0  0  0
   -3.2004    1.2803    0.7856 H   0  0  0  0  0  0  0  0  0  0  0  0
    5.1019   -2.2453    0.3298 H   0  0  0  0  0  0  0  0  0  0  0  0
    5.2692   -0.9806   -0.8953 H   0  0  0  0  0  0  0  0  0  0  0  0
   -2.3602   -1.1644   -4.3174 H   0  0  0  0  0  0  0  0  0  0  0  0
   -0.7587   -1.4867   -3.6158 H   0  0  0  0  0  0  0  0  0  0  0  0
   -2.1003   -2.5989   -3.2980 H   0  0  0  0  0  0  0  0  0  0  0  0
    7.0930   -1.3394    1.5479 H   0  0  0  0  0  0  0  0  0  0  0  0
    7.2583   -0.0614    0.3198 H   0  0  0  0  0  0  0  0  0  0  0  0
   -6.1017    0.5591   -1.0729 H   0  0  0  0  0  0  0  0  0  0  0  0
   -6.1129   -2.7596    2.6186 H   0  0  0  0  0  0  0  0  0  0  0  0
   -8.2133   -0.0582    0.0363 H   0  0  0  0  0  0  0  0  0  0  0  0
   -8.2188   -1.7165    1.8807 H   0  0  0  0  0  0  0  0  0  0  0  0
    9.6489   -2.4690   -0.6105 H   0  0  0  0  0  0  0  0  0  0  0  0
  1 26  1  0  0  0  0
  2 20  2  0  0  0  0
  3 28  1  0  0  0  0
  3 58  1  0  0  0  0
  4 28  2  0  0  0  0
  5 11  1  0  0  0  0
  5 14  1  0  0  0  0
  5 15  1  0  0  0  0
  6 16  1  0  0  0  0
  6 20  1  0  0  0  0
  6 45  1  0  0  0  0
  7 17  2  0  0  0  0
  7 21  1  0  0  0  0
  8 19  1  0  0  0  0
  8 21  2  0  0  0  0
  9 10  1  0  0  0  0
  9 12  1  0  0  0  0
  9 13  1  0  0  0  0
  9 32  1  0  0  0  0
 10 14  1  0  0  0  0
 10 17  1  0  0  0  0
 10 33  1  0  0  0  0
 11 12  1  0  0  0  0
 11 16  1  0  0  0  0
 11 34  1  0  0  0  0
 12 35  1  0  0  0  0
 12 36  1  0  0  0  0
 13 15  1  0  0  0  0
 13 37  1  0  0  0  0
 13 38  1  0  0  0  0
 14 39  1  0  0  0  0
 14 40  1  0  0  0  0
 15 41  1  0  0  0  0
 15 42  1  0  0  0  0
 16 43  1  0  0  0  0
 16 44  1  0  0  0  0
 17 18  1  0  0  0  0
 18 19  2  0  0  0  0
 18 46  1  0  0  0  0
 19 23  1  0  0  0  0
 20 22  1  0  0  0  0
 21 24  1  0  0  0  0
 22 25  1  0  0  0  0
 22 47  1  0  0  0  0
 22 48  1  0  0  0  0
 23 26  1  0  0  0  0
 23 27  2  0  0  0  0
 24 49  1  0  0  0  0
 24 50  1  0  0  0  0
 24 51  1  0  0  0  0
 25 28  1  0  0  0  0
 25 52  1  0  0  0  0
 25 53  1  0  0  0  0
 26 29  2  0  0  0  0
 27 30  1  0  0  0  0
 27 54  1  0  0  0  0
 29 31  1  0  0  0  0
 29 55  1  0  0  0  0
 30 31  2  0  0  0  0
 30 56  1  0  0  0  0
 31 57  1  0  0  0  0
M  END
> <PUBCHEM_COMPOUND_CID>
40777095

> <PUBCHEM_CONFORMER_RMSD>
1

> <PUBCHEM_CONFORMER_DIVERSEORDER>
1
76
95
121
90
127
54
8
104
36
70
12
49
14
60
110
113
94
131
130
106
62
72
26
59
29
53
18
119
77
63
91
114
102
51
96
67
65
15
122
2
135
129
35
16
79
93
117
133
99
92
124
68
21
19
85
31
115
100
103
78
97
66
55
3
120
82
30
48
108
73
132
83
20
88
111
125
109
46
134
11
118
23
7
32
101
81
42
61
126
107
105
40
45
128
75
17
56
58
5
24
69
64
10
52
37
112
44
25
84
80
89
47
98
4
50
27
123
13
28
34
43
6
71
116
33
22
38
74
86
87
41
57
9
39

> <PUBCHEM_MMFF94_PARTIAL_CHARGES>
34
1 -0.11
10 0.14
11 0.27
14 0.27
15 0.27
16 0.3
17 0.17
18 -0.15
19 0.31
2 -0.57
20 0.57
21 0.48
22 0.06
24 0.14
25 0.06
26 0.11
27 -0.15
28 0.66
29 -0.15
3 -0.65
30 -0.15
31 -0.15
4 -0.57
45 0.37
46 0.15
5 -0.81
54 0.15
55 0.15
56 0.15
57 0.15
58 0.5
6 -0.73
7 -0.62
8 -0.62

> <PUBCHEM_EFFECTIVE_ROTOR_COUNT>
9.2

> <PUBCHEM_PHARMACOPHORE_FEATURES>
12
1 1 hydrophobe
1 2 acceptor
1 3 acceptor
1 4 acceptor
1 5 cation
1 6 donor
1 7 acceptor
3 3 4 28 anion
3 7 8 21 cation
6 23 26 27 29 30 31 rings
6 7 8 17 18 19 21 rings
8 5 9 10 11 12 13 14 15 rings

> <PUBCHEM_HEAVY_ATOM_COUNT>
31

> <PUBCHEM_ATOM_DEF_STEREO_COUNT>
3

> <PUBCHEM_ATOM_UDEF_STEREO_COUNT>
0

> <PUBCHEM_BOND_DEF_STEREO_COUNT>
0

> <PUBCHEM_BOND_UDEF_STEREO_COUNT>
0

> <PUBCHEM_ISOTOPIC_ATOM_COUNT>
0

> <PUBCHEM_COMPONENT_COUNT>
1

> <PUBCHEM_CACTVS_TAUTO_COUNT>
2

> <PUBCHEM_CONFORMER_ID>
026E358700000001

> <PUBCHEM_MMFF94_ENERGY>
78.9976

> <PUBCHEM_FEATURE_SELFOVERLAP>
60.953

> <PUBCHEM_SHAPE_FINGERPRINT>
10369192 42 16883289872715553437
10577160 103 15647920243870478324
10692045 39 16486987188835633239
11135926 11 17975120252462469012
11211813 15 10953753209212576214
11505856 67 13769302231263113159
11513181 2 17538016048721906659
11961588 58 11169911684421122716
12633257 1 16701736167863669489
13103583 49 16845001416202501396
13402501 40 17967529103845721483
13540713 5 17486479688481297477
13583140 156 17764873881441036473
13673619 4 17749105617097612229
13690498 29 17458338633213235061
13947930 73 18188782758771445083
14251764 30 18334011692344128034
14420673 8 18187086187371788515
14705955 166 15195296278537278691
14767858 380 12901541351793516373
14955137 171 18341894121062651416
15669420 48 15574718001966179498
15684393 108 18336553746839208822
16120349 189 10231745704793737528
19246450 95 17417258624131760073
195137 95 11527951132163150914
208703 8 18261395521119726612
21344244 246 17822584910368581148
21365058 113 18040155145057813797
21403212 168 16773799169507847191
21716022 299 17969238861675796260
23559900 14 17968940941495544301
2838139 119 11455883655157061515
312425 54 16629949028190676938
3737641 26 18199743657666730390
4107672 100 17023457548191204581
437815 12 18335423477963772899
5104073 3 17487337294997914907
513202 73 18130506319459092734
54039377 194 18410296891864653310
5470011 282 17821732724311004734
54728670 133 16055758625316687832
57816373 69 18189615124165983423
6009941 240 18262232201675678309
6058803 2 17127315449171496093
6371380 46 18040703772122866681
6679774 75 18200609097313147863
9896288 288 17985833622599953425
999808 66 18342176644254137674

> <PUBCHEM_SHAPE_MULTIPOLES>
606.38
20.33
3.74
2.18
25.01
2.78
-1.56
-24.59
4.15
3.26
0.53
-1.48
-0.83
2.52

> <PUBCHEM_SHAPE_SELFOVERLAP>
1282.659

> <PUBCHEM_SHAPE_VOLUME>
347.3

> <PUBCHEM_COORDINATE_TYPE>
2
5
10

$$$$
