26742458
  -OEChem-12032416223D

 58 62  0     1  0  0  0  0  0999 V2000
    4.1833    0.8949    1.4981 O   0  0  0  0  0  0  0  0  0  0  0  0
   -6.3689   -2.1056    0.4250 O   0  0  0  0  0  0  0  0  0  0  0  0
    0.0289    2.6720    0.8204 N   0  0  2  0  0  0  0  0  0  0  0  0
    2.3720   -0.2620    0.6422 N   0  0  0  0  0  0  0  0  0  0  0  0
   -2.4225   -0.2254   -1.7128 N   0  0  0  0  0  0  0  0  0  0  0  0
   -4.2978   -1.5774   -1.0327 N   0  0  0  0  0  0  0  0  0  0  0  0
    4.5018   -1.0201    0.1783 N   0  0  0  0  0  0  0  0  0  0  0  0
   -0.6902    2.0568   -1.6060 C   0  0  2  0  0  0  0  0  0  0  0  0
   -1.8874    1.9008   -0.6279 C   0  0  2  0  0  0  0  0  0  0  0  0
    0.9985    1.7113    0.2311 C   0  0  2  0  0  0  0  0  0  0  0  0
    0.4818    1.1771   -1.1221 C   0  0  0  0  0  0  0  0  0  0  0  0
   -0.2249    3.5257   -1.5092 C   0  0  0  0  0  0  0  0  0  0  0  0
   -1.3349    2.0863    0.8142 C   0  0  0  0  0  0  0  0  0  0  0  0
    0.0155    3.8847   -0.0324 C   0  0  0  0  0  0  0  0  0  0  0  0
    1.3531    0.5764    1.1943 C   0  0  0  0  0  0  0  0  0  0  0  0
   -2.7631    0.6626   -0.7559 C   0  0  0  0  0  0  0  0  0  0  0  0
   -3.8422    0.5026    0.0894 C   0  0  0  0  0  0  0  0  0  0  0  0
   -4.5811   -0.6479   -0.0967 C   0  0  0  0  0  0  0  0  0  0  0  0
   -3.2211   -1.3065   -1.7950 C   0  0  0  0  0  0  0  0  0  0  0  0
    3.7480   -0.0430    0.8345 C   0  0  0  0  0  0  0  0  0  0  0  0
   -5.7330   -0.9399    0.7144 C   0  0  0  0  0  0  0  0  0  0  0  0
   -2.8755   -2.3124   -2.8404 C   0  0  0  0  0  0  0  0  0  0  0  0
   -6.3624   -0.2906    1.7509 C   0  0  0  0  0  0  0  0  0  0  0  0
    5.9100   -1.1448    0.1329 C   0  0  0  0  0  0  0  0  0  0  0  0
   -7.4550   -1.1100    2.1224 C   0  0  0  0  0  0  0  0  0  0  0  0
   -7.4155   -2.2016    1.2862 C   0  0  0  0  0  0  0  0  0  0  0  0
    6.4947   -2.1925   -0.5786 C   0  0  0  0  0  0  0  0  0  0  0  0
    6.7140   -0.2205    0.7997 C   0  0  0  0  0  0  0  0  0  0  0  0
    7.8835   -2.3159   -0.6232 C   0  0  0  0  0  0  0  0  0  0  0  0
    8.1026   -0.3436    0.7551 C   0  0  0  0  0  0  0  0  0  0  0  0
    8.6874   -1.3914    0.0437 C   0  0  0  0  0  0  0  0  0  0  0  0
   -0.9664    1.8106   -2.6367 H   0  0  0  0  0  0  0  0  0  0  0  0
   -2.5682    2.7406   -0.8368 H   0  0  0  0  0  0  0  0  0  0  0  0
    1.9344    2.2582    0.0428 H   0  0  0  0  0  0  0  0  0  0  0  0
    0.1569    0.1333   -1.0488 H   0  0  0  0  0  0  0  0  0  0  0  0
    1.2935    1.2080   -1.8597 H   0  0  0  0  0  0  0  0  0  0  0  0
   -0.9800    4.1955   -1.9369 H   0  0  0  0  0  0  0  0  0  0  0  0
    0.6968    3.6636   -2.0876 H   0  0  0  0  0  0  0  0  0  0  0  0
   -2.0069    2.7505    1.3743 H   0  0  0  0  0  0  0  0  0  0  0  0
   -1.3377    1.1455    1.3767 H   0  0  0  0  0  0  0  0  0  0  0  0
    0.9644    4.4254    0.0699 H   0  0  0  0  0  0  0  0  0  0  0  0
   -0.7575    4.5790    0.3209 H   0  0  0  0  0  0  0  0  0  0  0  0
    0.4940   -0.0692    1.4017 H   0  0  0  0  0  0  0  0  0  0  0  0
    1.7036    0.9842    2.1494 H   0  0  0  0  0  0  0  0  0  0  0  0
    2.0863   -1.0557    0.0770 H   0  0  0  0  0  0  0  0  0  0  0  0
   -4.0885    1.2417    0.8420 H   0  0  0  0  0  0  0  0  0  0  0  0
   -3.4281   -2.0946   -3.7591 H   0  0  0  0  0  0  0  0  0  0  0  0
   -1.8039   -2.2913   -3.0624 H   0  0  0  0  0  0  0  0  0  0  0  0
   -3.1328   -3.3224   -2.5063 H   0  0  0  0  0  0  0  0  0  0  0  0
    3.9826   -1.7307   -0.3310 H   0  0  0  0  0  0  0  0  0  0  0  0
   -6.0805    0.6544    2.1935 H   0  0  0  0  0  0  0  0  0  0  0  0
   -8.1806   -0.9279    2.9018 H   0  0  0  0  0  0  0  0  0  0  0  0
   -8.0271   -3.0859    1.1817 H   0  0  0  0  0  0  0  0  0  0  0  0
    5.8797   -2.9198   -1.1026 H   0  0  0  0  0  0  0  0  0  0  0  0
    6.3364    0.6159    1.3705 H   0  0  0  0  0  0  0  0  0  0  0  0
    8.3389   -3.1316   -1.1771 H   0  0  0  0  0  0  0  0  0  0  0  0
    8.7299    0.3755    1.2739 H   0  0  0  0  0  0  0  0  0  0  0  0
    9.7687   -1.4873    0.0090 H   0  0  0  0  0  0  0  0  0  0  0  0
  1 20  2  0  0  0  0
  2 21  1  0  0  0  0
  2 26  1  0  0  0  0
  3 10  1  0  0  0  0
  3 13  1  0  0  0  0
  3 14  1  0  0  0  0
  4 15  1  0  0  0  0
  4 20  1  0  0  0  0
  4 45  1  0  0  0  0
  5 16  2  0  0  0  0
  5 19  1  0  0  0  0
  6 18  1  0  0  0  0
  6 19  2  0  0  0  0
  7 20  1  0  0  0  0
  7 24  1  0  0  0  0
  7 50  1  0  0  0  0
  8  9  1  0  0  0  0
  8 11  1  0  0  0  0
  8 12  1  0  0  0  0
  8 32  1  0  0  0  0
  9 13  1  0  0  0  0
  9 16  1  0  0  0  0
  9 33  1  0  0  0  0
 10 11  1  0  0  0  0
 10 15  1  0  0  0  0
 10 34  1  0  0  0  0
 11 35  1  0  0  0  0
 11 36  1  0  0  0  0
 12 14  1  0  0  0  0
 12 37  1  0  0  0  0
 12 38  1  0  0  0  0
 13 39  1  0  0  0  0
 13 40  1  0  0  0  0
 14 41  1  0  0  0  0
 14 42  1  0  0  0  0
 15 43  1  0  0  0  0
 15 44  1  0  0  0  0
 16 17  1  0  0  0  0
 17 18  2  0  0  0  0
 17 46  1  0  0  0  0
 18 21  1  0  0  0  0
 19 22  1  0  0  0  0
 21 23  2  0  0  0  0
 22 47  1  0  0  0  0
 22 48  1  0  0  0  0
 22 49  1  0  0  0  0
 23 25  1  0  0  0  0
 23 51  1  0  0  0  0
 24 27  2  0  0  0  0
 24 28  1  0  0  0  0
 25 26  2  0  0  0  0
 25 52  1  0  0  0  0
 26 53  1  0  0  0  0
 27 29  1  0  0  0  0
 27 54  1  0  0  0  0
 28 30  2  0  0  0  0
 28 55  1  0  0  0  0
 29 31  2  0  0  0  0
 29 56  1  0  0  0  0
 30 31  1  0  0  0  0
 30 57  1  0  0  0  0
 31 58  1  0  0  0  0
M  END
> <PUBCHEM_COMPOUND_CID>
26742458

> <PUBCHEM_CONFORMER_RMSD>
1

> <PUBCHEM_CONFORMER_DIVERSEORDER>
1
120
174
18
165
29
15
109
62
48
173
146
94
178
36
46
17
5
176
86
53
118
166
66
139
12
78
59
168
149
152
8
24
2
177
63
158
28
57
26
95
134
137
135
85
21
92
144
145
72
13
27
136
81
67
159
112
11
147
128
157
52
10
54
101
34
61
47
103
127
80
132
79
179
41
75
56
99
150
171
7
125
167
110
97
38
121
51
30
108
20
148
77
71
32
90
6
16
140
23
102
124
14
170
89
107
35
73
82
49
60
142
163
25
87
126
161
31
156
175
106
19
117
113
105
96
119
153
172
164
122
154
151
83
3
143
40
22
162
84
131
74
43
39
116
42
111
55
115
138
45
37
155
169
130
4
114
91
9
100
44
93
65
88
98
129
58
33
104
70
68
69
141
133
160
50
64
123
76

> <PUBCHEM_MMFF94_PARTIAL_CHARGES>
39
1 -0.57
10 0.27
13 0.27
14 0.27
15 0.3
16 0.17
17 -0.15
18 0.36
19 0.48
2 -0.28
20 0.69
21 0.09
22 0.14
23 -0.15
24 0.12
25 -0.15
26 -0.01
27 -0.15
28 -0.15
29 -0.15
3 -0.81
30 -0.15
31 -0.15
4 -0.73
45 0.37
46 0.15
5 -0.62
50 0.37
51 0.15
52 0.15
53 0.15
54 0.15
55 0.15
56 0.15
57 0.15
58 0.15
6 -0.62
7 -0.55
9 0.14

> <PUBCHEM_EFFECTIVE_ROTOR_COUNT>
8.2

> <PUBCHEM_PHARMACOPHORE_FEATURES>
11
1 1 acceptor
1 2 acceptor
1 3 cation
1 4 donor
1 5 acceptor
1 7 donor
3 5 6 19 cation
5 2 21 23 25 26 rings
6 24 27 28 29 30 31 rings
6 5 6 16 17 18 19 rings
8 3 8 9 10 11 12 13 14 rings

> <PUBCHEM_HEAVY_ATOM_COUNT>
31

> <PUBCHEM_ATOM_DEF_STEREO_COUNT>
3

> <PUBCHEM_ATOM_UDEF_STEREO_COUNT>
0

> <PUBCHEM_BOND_DEF_STEREO_COUNT>
0

> <PUBCHEM_BOND_UDEF_STEREO_COUNT>
0

> <PUBCHEM_ISOTOPIC_ATOM_COUNT>
0

> <PUBCHEM_COMPONENT_COUNT>
1

> <PUBCHEM_CACTVS_TAUTO_COUNT>
3

> <PUBCHEM_CONFORMER_ID>
01980EBA00000001

> <PUBCHEM_MMFF94_ENERGY>
76.9092

> <PUBCHEM_FEATURE_SELFOVERLAP>
55.871

> <PUBCHEM_SHAPE_FINGERPRINT>
10076449 9 17822016423268073290
10190108 129 18412268320271138186
10577160 103 14057587715933788462
11059845 2 17917444094885682017
11103572 155 18192714431952637914
11374522 101 11239698813704123290
11387372 6 18337110167967910411
11476731 47 17677622033071566564
12013929 27 18043533816422405062
12539747 363 18411423903467172544
131258 43 16009609000463917471
13631057 29 17967813808632206312
13673619 4 17603585262009797661
13690498 29 18186793660684615581
13782708 43 18339349757626682826
13941219 33 17418089897581971822
14251764 30 18333448750769599323
14705955 166 16128388030062432043
14950920 106 16271348825196928058
14955137 171 18411704326587455361
15064981 194 18195536892189100812
15064986 96 17560246795609484023
15289351 153 11386359336927640700
15350500 185 10879994631841804459
15350500 55 13038915391330551043
15669420 48 14490197115522733251
16110190 28 17989202680961975230
16992779 147 16915643995169753504
17686467 74 18260541231051233072
18335252 98 18412546505903767306
19246450 95 17846227605683705121
21033648 29 14189303693945382269
21298829 104 9799422130694035571
21344244 246 17531821271984334388
21365058 113 17604151527625672853
21716022 299 17823152261682578852
21795232 338 17988918972881968976
22149856 69 17917713483829501576
2747138 104 18334011696839458232
335507 130 18412542133579606596
3383291 50 18187366553492972434
3388396 114 11242237572334357895
3552219 110 18130796672439855112
3737641 26 18340200778577275826
393628 179 9583516482228832834
437815 12 18187089481342237579
474113 269 18270952571089794471
5372103 7 12103578429336474259
54039377 194 18334018293635021886
5470011 282 17313105250634487118
54728670 133 16055761927845845120
57527293 21 17632009866201645740
57527573 199 16198759991213701801
6009941 240 18040992891904247605
6058803 2 14402612308720359144
636775 8 18335991883290843134
9896288 288 18127979607347525385
999808 66 18411702075666103931

> <PUBCHEM_SHAPE_MULTIPOLES>
601.32
23.66
3.51
1.91
29.44
2.81
-0.72
-25.93
9.78
-1.03
-1.06
-2.91
-0.61
1.38

> <PUBCHEM_SHAPE_SELFOVERLAP>
1310.838

> <PUBCHEM_SHAPE_VOLUME>
321.4

> <PUBCHEM_COORDINATE_TYPE>
2
5
10

$$$$
