45361636
  -OEChem-12032416203D

 74 77  0     1  0  0  0  0  0999 V2000
    0.7325    1.5325   -1.0950 O   0  0  0  0  0  0  0  0  0  0  0  0
    5.0559   -1.3887   -0.5543 O   0  0  0  0  0  0  0  0  0  0  0  0
   -5.3032    0.6170    2.0462 O   0  0  0  0  0  0  0  0  0  0  0  0
    7.7642   -0.7575   -0.2931 O   0  0  0  0  0  0  0  0  0  0  0  0
   -4.3090   -0.0715    0.0681 N   0  0  0  0  0  0  0  0  0  0  0  0
    5.1260    0.8082    0.1693 N   0  0  0  0  0  0  0  0  0  0  0  0
   -9.0896    0.3671    0.2405 N   0  0  0  0  0  0  0  0  0  0  0  0
   -7.9629    0.7518   -1.8544 N   0  0  0  0  0  0  0  0  0  0  0  0
   -0.3619   -1.7046    0.6077 C   0  0  1  0  0  0  0  0  0  0  0  0
   -0.4557   -0.2249    0.1071 C   0  0  2  0  0  0  0  0  0  0  0  0
   -1.8858    0.0817   -0.4662 C   0  0  1  0  0  0  0  0  0  0  0  0
    0.7315    0.1281   -0.8345 C   0  0  2  0  0  0  0  0  0  0  0  0
    1.0175   -1.9397    1.2673 C   0  0  0  0  0  0  0  0  0  0  0  0
    2.1060   -0.2064   -0.2095 C   0  0  1  0  0  0  0  0  0  0  0  0
   -1.4452   -1.9420    1.6851 C   0  0  0  0  0  0  0  0  0  0  0  0
   -2.9722   -0.2321    0.6007 C   0  0  2  0  0  0  0  0  0  0  0  0
    2.1821   -1.6327    0.3351 C   0  0  0  0  0  0  0  0  0  0  0  0
   -2.8530   -1.6353    1.1947 C   0  0  0  0  0  0  0  0  0  0  0  0
   -0.5476   -2.7321   -0.5376 C   0  0  0  0  0  0  0  0  0  0  0  0
    3.2533    0.0256   -1.2003 C   0  0  1  0  0  0  0  0  0  0  0  0
   -2.0572    1.5313   -0.9512 C   0  0  0  0  0  0  0  0  0  0  0  0
    4.5586   -0.2626   -0.5023 C   0  0  0  0  0  0  0  0  0  0  0  0
    3.1090   -0.8619   -2.4231 C   0  0  0  0  0  0  0  0  0  0  0  0
    6.3399    0.6786    0.9783 C   0  0  2  0  0  0  0  0  0  0  0  0
   -5.3724    0.3452    0.8504 C   0  0  0  0  0  0  0  0  0  0  0  0
    4.5731    2.1574    0.2572 C   0  0  0  0  0  0  0  0  0  0  0  0
    6.3332    1.9378    1.8487 C   0  0  0  0  0  0  0  0  0  0  0  0
    5.6433    2.9723    0.9673 C   0  0  0  0  0  0  0  0  0  0  0  0
    7.5878    0.5901    0.1020 C   0  0  0  0  0  0  0  0  0  0  0  0
   -6.6851    0.4346    0.1605 C   0  0  0  0  0  0  0  0  0  0  0  0
   -7.8805    0.2921    0.8346 C   0  0  0  0  0  0  0  0  0  0  0  0
   -6.7884    0.6650   -1.1961 C   0  0  0  0  0  0  0  0  0  0  0  0
    8.9136   -0.9198   -1.1167 C   0  0  0  0  0  0  0  0  0  0  0  0
   -9.0577    0.5956   -1.0862 C   0  0  0  0  0  0  0  0  0  0  0  0
   -0.3482    0.4282    0.9881 H   0  0  0  0  0  0  0  0  0  0  0  0
   -2.0608   -0.5558   -1.3421 H   0  0  0  0  0  0  0  0  0  0  0  0
    0.5723   -0.3789   -1.7884 H   0  0  0  0  0  0  0  0  0  0  0  0
    1.1109   -1.3090    2.1618 H   0  0  0  0  0  0  0  0  0  0  0  0
    1.1003   -2.9773    1.6157 H   0  0  0  0  0  0  0  0  0  0  0  0
    2.2467    0.4667    0.6462 H   0  0  0  0  0  0  0  0  0  0  0  0
   -1.4080   -2.9801    2.0393 H   0  0  0  0  0  0  0  0  0  0  0  0
   -1.2389   -1.3119    2.5607 H   0  0  0  0  0  0  0  0  0  0  0  0
   -2.8536    0.4875    1.4227 H   0  0  0  0  0  0  0  0  0  0  0  0
    2.1998   -2.3896   -0.4516 H   0  0  0  0  0  0  0  0  0  0  0  0
    3.0940   -1.7772    0.9250 H   0  0  0  0  0  0  0  0  0  0  0  0
   -3.5509   -1.7436    2.0352 H   0  0  0  0  0  0  0  0  0  0  0  0
   -3.1674   -2.3855    0.4588 H   0  0  0  0  0  0  0  0  0  0  0  0
    0.1803   -2.5976   -1.3426 H   0  0  0  0  0  0  0  0  0  0  0  0
   -0.4299   -3.7547   -0.1602 H   0  0  0  0  0  0  0  0  0  0  0  0
   -1.5356   -2.6766   -1.0017 H   0  0  0  0  0  0  0  0  0  0  0  0
    3.2340    1.0538   -1.5682 H   0  0  0  0  0  0  0  0  0  0  0  0
   -1.7402    2.2468   -0.1855 H   0  0  0  0  0  0  0  0  0  0  0  0
   -3.0979    1.7572   -1.2052 H   0  0  0  0  0  0  0  0  0  0  0  0
   -1.4885    1.7107   -1.8679 H   0  0  0  0  0  0  0  0  0  0  0  0
   -4.4653   -0.3748   -0.8877 H   0  0  0  0  0  0  0  0  0  0  0  0
    0.8318    1.9972   -0.2466 H   0  0  0  0  0  0  0  0  0  0  0  0
    3.9667   -0.7003   -3.0895 H   0  0  0  0  0  0  0  0  0  0  0  0
    3.1030   -1.9340   -2.2126 H   0  0  0  0  0  0  0  0  0  0  0  0
    2.2241   -0.6207   -3.0175 H   0  0  0  0  0  0  0  0  0  0  0  0
    6.2542   -0.2230    1.5969 H   0  0  0  0  0  0  0  0  0  0  0  0
    3.6545    2.1245    0.8493 H   0  0  0  0  0  0  0  0  0  0  0  0
    4.3573    2.5674   -0.7323 H   0  0  0  0  0  0  0  0  0  0  0  0
    7.3258    2.2555    2.1801 H   0  0  0  0  0  0  0  0  0  0  0  0
    5.7210    1.7630    2.7426 H   0  0  0  0  0  0  0  0  0  0  0  0
    5.2270    3.8085    1.5356 H   0  0  0  0  0  0  0  0  0  0  0  0
    6.3567    3.3757    0.2387 H   0  0  0  0  0  0  0  0  0  0  0  0
    8.4707    0.8948    0.6761 H   0  0  0  0  0  0  0  0  0  0  0  0
    7.5034    1.2337   -0.7820 H   0  0  0  0  0  0  0  0  0  0  0  0
   -7.9149    0.1044    1.9032 H   0  0  0  0  0  0  0  0  0  0  0  0
   -5.9227    0.8180   -1.8318 H   0  0  0  0  0  0  0  0  0  0  0  0
    8.9955   -1.9759   -1.3872 H   0  0  0  0  0  0  0  0  0  0  0  0
    9.8179   -0.6261   -0.5751 H   0  0  0  0  0  0  0  0  0  0  0  0
    8.8135   -0.3308   -2.0335 H   0  0  0  0  0  0  0  0  0  0  0  0
  -10.0148    0.6605   -1.5890 H   0  0  0  0  0  0  0  0  0  0  0  0
  1 12  1  0  0  0  0
  1 56  1  0  0  0  0
  2 22  2  0  0  0  0
  3 25  2  0  0  0  0
  4 29  1  0  0  0  0
  4 33  1  0  0  0  0
  5 16  1  0  0  0  0
  5 25  1  0  0  0  0
  5 55  1  0  0  0  0
  6 22  1  0  0  0  0
  6 24  1  0  0  0  0
  6 26  1  0  0  0  0
  7 31  2  0  0  0  0
  7 34  1  0  0  0  0
  8 32  1  0  0  0  0
  8 34  2  0  0  0  0
  9 10  1  0  0  0  0
  9 13  1  0  0  0  0
  9 15  1  0  0  0  0
  9 19  1  0  0  0  0
 10 11  1  0  0  0  0
 10 12  1  0  0  0  0
 10 35  1  0  0  0  0
 11 16  1  0  0  0  0
 11 21  1  0  0  0  0
 11 36  1  0  0  0  0
 12 14  1  0  0  0  0
 12 37  1  0  0  0  0
 13 17  1  0  0  0  0
 13 38  1  0  0  0  0
 13 39  1  0  0  0  0
 14 17  1  0  0  0  0
 14 20  1  0  0  0  0
 14 40  1  0  0  0  0
 15 18  1  0  0  0  0
 15 41  1  0  0  0  0
 15 42  1  0  0  0  0
 16 18  1  0  0  0  0
 16 43  1  0  0  0  0
 17 44  1  0  0  0  0
 17 45  1  0  0  0  0
 18 46  1  0  0  0  0
 18 47  1  0  0  0  0
 19 48  1  0  0  0  0
 19 49  1  0  0  0  0
 19 50  1  0  0  0  0
 20 22  1  0  0  0  0
 20 23  1  0  0  0  0
 20 51  1  0  0  0  0
 21 52  1  0  0  0  0
 21 53  1  0  0  0  0
 21 54  1  0  0  0  0
 23 57  1  0  0  0  0
 23 58  1  0  0  0  0
 23 59  1  0  0  0  0
 24 27  1  0  0  0  0
 24 29  1  0  0  0  0
 24 60  1  0  0  0  0
 25 30  1  0  0  0  0
 26 28  1  0  0  0  0
 26 61  1  0  0  0  0
 26 62  1  0  0  0  0
 27 28  1  0  0  0  0
 27 63  1  0  0  0  0
 27 64  1  0  0  0  0
 28 65  1  0  0  0  0
 28 66  1  0  0  0  0
 29 67  1  0  0  0  0
 29 68  1  0  0  0  0
 30 31  1  0  0  0  0
 30 32  2  0  0  0  0
 31 69  1  0  0  0  0
 32 70  1  0  0  0  0
 33 71  1  0  0  0  0
 33 72  1  0  0  0  0
 33 73  1  0  0  0  0
 34 74  1  0  0  0  0
M  END
> <PUBCHEM_COMPOUND_CID>
45361636

> <PUBCHEM_CONFORMER_RMSD>
1

> <PUBCHEM_CONFORMER_DIVERSEORDER>
1
47
64
70
30
46
36
27
18
54
48
16
12
38
56
55
60
15
44
34
59
62
37
71
31
5
9
25
21
22
50
24
7
33
53
66
63
10
49
40
69
41
28
51
20
4
65
42
26
32
19
14
35
43
57
8
2
13
52
45
39
68
6
67
11
23
61
17
58
29
3

> <PUBCHEM_MMFF94_PARTIAL_CHARGES>
26
1 -0.68
12 0.28
16 0.3
2 -0.57
20 0.06
22 0.57
24 0.3
25 0.54
26 0.3
29 0.28
3 -0.57
30 0.09
31 0.16
32 0.16
33 0.28
34 0.47
4 -0.56
5 -0.73
55 0.37
56 0.4
6 -0.66
69 0.15
7 -0.62
70 0.15
74 0.15
8 -0.62

> <PUBCHEM_EFFECTIVE_ROTOR_COUNT>
10.6

> <PUBCHEM_PHARMACOPHORE_FEATURES>
13
1 1 acceptor
1 1 donor
1 2 acceptor
1 23 hydrophobe
1 3 acceptor
1 4 acceptor
1 5 donor
1 7 acceptor
3 7 8 34 cation
5 6 24 26 27 28 rings
6 7 8 30 31 32 34 rings
6 9 10 11 15 16 18 rings
6 9 10 12 13 14 17 rings

> <PUBCHEM_HEAVY_ATOM_COUNT>
34

> <PUBCHEM_ATOM_DEF_STEREO_COUNT>
7

> <PUBCHEM_ATOM_UDEF_STEREO_COUNT>
1

> <PUBCHEM_BOND_DEF_STEREO_COUNT>
0

> <PUBCHEM_BOND_UDEF_STEREO_COUNT>
0

> <PUBCHEM_ISOTOPIC_ATOM_COUNT>
0

> <PUBCHEM_COMPONENT_COUNT>
1

> <PUBCHEM_CACTVS_TAUTO_COUNT>
2

> <PUBCHEM_CONFORMER_ID>
02B429E400000001

> <PUBCHEM_MMFF94_ENERGY>
105.7023

> <PUBCHEM_FEATURE_SELFOVERLAP>
65.99

> <PUBCHEM_SHAPE_FINGERPRINT>
10 15 17386007294860446332
10162869 55 17417806245235943380
11136131 41 17241597326743379659
11409948 35 18115024084082903962
11719270 70 17313385608655768651
12144603 126 14707215422410709486
12664476 115 18410571782814884344
12838862 33 18040985255209405669
13150687 139 18273502260364324950
13383668 254 17917163775550391801
13673619 4 8142093052194028522
13685833 64 8214147356603148688
13811026 1 18411984697446574875
14117953 113 18040437689470234068
14294032 229 17095517336588454893
15131766 46 17271992449673120064
15183329 4 15985107418387905771
15289351 153 18336256843522059176
15301273 46 17167863041448721530
15461852 350 18335423508408696095
15840311 113 18131349739441295564
18335252 114 18131349718087421288
18335252 98 8935004763559095082
19301679 30 15141502659933120928
20157964 124 17988647389225321390
2026 5 8862129137514430896
20554085 129 18333722533559941387
20721686 124 18131355185676547502
21033648 29 18337383968280233368
21150785 3 16559031597571751897
21403212 168 18187639215153742209
21792934 111 17677039158020228291
21859007 373 17676756618150747693
22224240 67 18335137601141429707
23559900 14 18187653544325210510
24771293 8 18411704283633046661
24893992 56 18186801422428484411
335352 9 17968101927432882398
34797466 226 17775010068150894565
3633792 109 17632024065495206318
4093350 32 17989489601883201759
4625314 4 17917709131999144679
58902169 19 17346310535615159620
6081469 158 18261393322112373028
9962374 69 9367049044346891443

> <PUBCHEM_SHAPE_MULTIPOLES>
656.3
26.92
2.21
1.66
20.81
0.01
-0.13
-10.69
-2.69
-2.86
0.62
0.23
0.02
2.68

> <PUBCHEM_SHAPE_SELFOVERLAP>
1375.46

> <PUBCHEM_SHAPE_VOLUME>
366.5

> <PUBCHEM_COORDINATE_TYPE>
2
5
10

$$$$
