75536266
  -OEChem-12032416303D

 50 52  0     1  0  0  0  0  0999 V2000
   -6.8459    0.9451    0.7895 F   0  0  0  0  0  0  0  0  0  0  0  0
    2.5877   -0.4632    0.8742 O   0  0  0  0  0  0  0  0  0  0  0  0
    5.3821   -0.4609    1.8122 O   0  0  0  0  0  0  0  0  0  0  0  0
   -1.5714   -1.5980   -1.4591 O   0  0  0  0  0  0  0  0  0  0  0  0
    1.6553    2.1026    0.0580 N   0  0  0  0  0  0  0  0  0  0  0  0
   -0.2816   -2.1070   -1.5514 N   0  0  0  0  0  0  0  0  0  0  0  0
    3.4823    0.6563    0.8349 C   0  0  1  0  0  0  0  0  0  0  0  0
    4.9337    0.2043    0.6282 C   0  0  2  0  0  0  0  0  0  0  0  0
    2.6451   -1.3277   -0.2630 C   0  0  1  0  0  0  0  0  0  0  0  0
    5.0785   -0.7710   -0.5369 C   0  0  0  0  0  0  0  0  0  0  0  0
    4.0524   -1.8961   -0.4374 C   0  0  0  0  0  0  0  0  0  0  0  0
    3.0269    1.6888   -0.1942 C   0  0  0  0  0  0  0  0  0  0  0  0
    1.6324   -2.4446   -0.0412 C   0  0  0  0  0  0  0  0  0  0  0  0
    0.2264   -1.9863   -0.3216 C   0  0  0  0  0  0  0  0  0  0  0  0
    1.2213    3.0953   -0.9165 C   0  0  0  0  0  0  0  0  0  0  0  0
   -0.6876   -1.4135    0.5796 C   0  0  0  0  0  0  0  0  0  0  0  0
    1.7632    4.4729   -0.5456 C   0  0  0  0  0  0  0  0  0  0  0  0
   -0.3025    3.1063   -0.9860 C   0  0  0  0  0  0  0  0  0  0  0  0
   -1.8013   -1.1882   -0.1854 C   0  0  0  0  0  0  0  0  0  0  0  0
   -3.1012   -0.6372    0.0658 C   0  0  0  0  0  0  0  0  0  0  0  0
   -3.4344   -0.1905    1.3446 C   0  0  0  0  0  0  0  0  0  0  0  0
   -4.0330   -0.5491   -0.9685 C   0  0  0  0  0  0  0  0  0  0  0  0
   -4.6993    0.3441    1.5891 C   0  0  0  0  0  0  0  0  0  0  0  0
   -5.2980   -0.0145   -0.7239 C   0  0  0  0  0  0  0  0  0  0  0  0
   -5.6310    0.4321    0.5548 C   0  0  0  0  0  0  0  0  0  0  0  0
    3.4112    1.1130    1.8309 H   0  0  0  0  0  0  0  0  0  0  0  0
    5.5870    1.0719    0.4836 H   0  0  0  0  0  0  0  0  0  0  0  0
    2.3701   -0.7657   -1.1636 H   0  0  0  0  0  0  0  0  0  0  0  0
    6.0841   -1.2073   -0.5513 H   0  0  0  0  0  0  0  0  0  0  0  0
    4.9417   -0.2389   -1.4855 H   0  0  0  0  0  0  0  0  0  0  0  0
    4.1059   -2.5266   -1.3322 H   0  0  0  0  0  0  0  0  0  0  0  0
    4.3052   -2.5289    0.4229 H   0  0  0  0  0  0  0  0  0  0  0  0
    3.1084    1.2837   -1.2087 H   0  0  0  0  0  0  0  0  0  0  0  0
    3.7081    2.5446   -0.1340 H   0  0  0  0  0  0  0  0  0  0  0  0
    1.6845   -2.8135    0.9911 H   0  0  0  0  0  0  0  0  0  0  0  0
    1.8516   -3.2952   -0.6995 H   0  0  0  0  0  0  0  0  0  0  0  0
    1.0530    1.2807    0.0109 H   0  0  0  0  0  0  0  0  0  0  0  0
    6.3161   -0.6974    1.6805 H   0  0  0  0  0  0  0  0  0  0  0  0
    1.5775    2.8318   -1.9210 H   0  0  0  0  0  0  0  0  0  0  0  0
   -0.5459   -1.1997    1.6289 H   0  0  0  0  0  0  0  0  0  0  0  0
    1.4626    4.7618    0.4680 H   0  0  0  0  0  0  0  0  0  0  0  0
    2.8551    4.5168   -0.6014 H   0  0  0  0  0  0  0  0  0  0  0  0
    1.3768    5.2336   -1.2333 H   0  0  0  0  0  0  0  0  0  0  0  0
   -0.7475    3.3625   -0.0178 H   0  0  0  0  0  0  0  0  0  0  0  0
   -0.6920    2.1276   -1.2887 H   0  0  0  0  0  0  0  0  0  0  0  0
   -0.6516    3.8410   -1.7197 H   0  0  0  0  0  0  0  0  0  0  0  0
   -2.7299   -0.2459    2.1705 H   0  0  0  0  0  0  0  0  0  0  0  0
   -3.8114   -0.8861   -1.9779 H   0  0  0  0  0  0  0  0  0  0  0  0
   -4.9594    0.6920    2.5845 H   0  0  0  0  0  0  0  0  0  0  0  0
   -6.0241    0.0545   -1.5286 H   0  0  0  0  0  0  0  0  0  0  0  0
  1 25  1  0  0  0  0
  2  7  1  0  0  0  0
  2  9  1  0  0  0  0
  3  8  1  0  0  0  0
  3 38  1  0  0  0  0
  4  6  1  0  0  0  0
  4 19  1  0  0  0  0
  5 12  1  0  0  0  0
  5 15  1  0  0  0  0
  5 37  1  0  0  0  0
  6 14  2  0  0  0  0
  7  8  1  0  0  0  0
  7 12  1  0  0  0  0
  7 26  1  0  0  0  0
  8 10  1  0  0  0  0
  8 27  1  0  0  0  0
  9 11  1  0  0  0  0
  9 13  1  0  0  0  0
  9 28  1  0  0  0  0
 10 11  1  0  0  0  0
 10 29  1  0  0  0  0
 10 30  1  0  0  0  0
 11 31  1  0  0  0  0
 11 32  1  0  0  0  0
 12 33  1  0  0  0  0
 12 34  1  0  0  0  0
 13 14  1  0  0  0  0
 13 35  1  0  0  0  0
 13 36  1  0  0  0  0
 14 16  1  0  0  0  0
 15 17  1  0  0  0  0
 15 18  1  0  0  0  0
 15 39  1  0  0  0  0
 16 19  2  0  0  0  0
 16 40  1  0  0  0  0
 17 41  1  0  0  0  0
 17 42  1  0  0  0  0
 17 43  1  0  0  0  0
 18 44  1  0  0  0  0
 18 45  1  0  0  0  0
 18 46  1  0  0  0  0
 19 20  1  0  0  0  0
 20 21  2  0  0  0  0
 20 22  1  0  0  0  0
 21 23  1  0  0  0  0
 21 47  1  0  0  0  0
 22 24  2  0  0  0  0
 22 48  1  0  0  0  0
 23 25  2  0  0  0  0
 23 49  1  0  0  0  0
 24 25  1  0  0  0  0
 24 50  1  0  0  0  0
M  END
> <PUBCHEM_COMPOUND_CID>
75536266

> <PUBCHEM_CONFORMER_RMSD>
0.8

> <PUBCHEM_CONFORMER_DIVERSEORDER>
1
94
129
63
97
169
80
45
22
134
152
54
176
137
44
171
115
99
88
5
140
37
120
34
67
159
109
121
168
172
111
93
28
177
138
64
160
78
30
49
149
118
95
148
103
166
122
42
61
113
110
131
24
14
10
17
33
162
101
91
124
71
112
141
60
86
6
16
69
39
90
147
145
50
100
114
155
40
21
163
132
96
19
55
36
57
25
8
89
59
156
123
135
74
51
125
56
26
62
82
136
104
73
70
170
23
173
174
83
119
165
178
9
106
108
146
48
81
77
151
142
52
84
130
126
46
58
153
27
133
107
29
150
158
164
143
38
41
65
154
68
76
43
7
127
35
144
85
15
2
157
72
66
161
79
31
87
175
32
53
117
139
92
18
102
98
128
12
167
4
47
11
105
116
20
3
75
13

> <PUBCHEM_MMFF94_PARTIAL_CHARGES>
28
1 -0.19
12 0.27
13 0.18
14 0.11
15 0.27
16 -0.15
19 0.09
2 -0.56
20 0.05
21 -0.15
22 -0.15
23 -0.15
24 -0.15
25 0.19
3 -0.68
37 0.36
38 0.4
4 -0.02
40 0.15
47 0.15
48 0.15
49 0.15
5 -0.9
50 0.15
6 -0.41
7 0.28
8 0.28
9 0.28

> <PUBCHEM_EFFECTIVE_ROTOR_COUNT>
7.2

> <PUBCHEM_PHARMACOPHORE_FEATURES>
10
1 2 acceptor
1 3 acceptor
1 3 donor
1 5 cation
1 5 donor
1 6 acceptor
3 15 17 18 hydrophobe
5 4 6 14 16 19 rings
6 2 7 8 9 10 11 rings
6 20 21 22 23 24 25 rings

> <PUBCHEM_HEAVY_ATOM_COUNT>
25

> <PUBCHEM_ATOM_DEF_STEREO_COUNT>
3

> <PUBCHEM_ATOM_UDEF_STEREO_COUNT>
0

> <PUBCHEM_BOND_DEF_STEREO_COUNT>
0

> <PUBCHEM_BOND_UDEF_STEREO_COUNT>
0

> <PUBCHEM_ISOTOPIC_ATOM_COUNT>
0

> <PUBCHEM_COMPONENT_COUNT>
1

> <PUBCHEM_CACTVS_TAUTO_COUNT>
1

> <PUBCHEM_CONFORMER_ID>
0480978A00000001

> <PUBCHEM_MMFF94_ENERGY>
37.2447

> <PUBCHEM_FEATURE_SELFOVERLAP>
50.747

> <PUBCHEM_SHAPE_FINGERPRINT>
10006869 2 18048021979187252695
10074138 170 15809993346408328210
10688039 33 17968095270476270692
11045977 3 17895203229065412075
12166972 35 18272652368008682161
12236239 1 17775563122494917151
12403259 118 18340484586000725275
12403259 327 17676206896390486914
12422481 6 18197786500608343217
12507557 5 18409732876532450203
12596602 18 13623533446011914943
12633257 1 18113896091255038891
12788726 201 18187085010608452976
13075007 39 17823435931697975353
13402501 40 18261386703114479141
13583140 156 18113336431848284411
14020679 6 17968101957808942163
14790565 3 17541666453629053428
15081414 286 18411421696159014668
151778 21 17971201566823743941
15238133 3 18186524323812529446
15420108 30 17840008969854423288
1601671 61 18411138047944513846
18785283 64 18115599295170208549
20567600 347 11527953335370305428
21033648 29 17676478433171180815
21033650 10 15553353391020741682
21285901 2 18129109931365919734
21298829 104 18273216383035417449
21304253 335 17989208152734303946
21860390 5 18271534168756577726
3052486 1 18189619346039590820
3459 110 18044393835950968963
4409770 3 15678050843284544007
474 4 18412263956410077835
513532 50 17203339896631346276
5283268 108 18335421232065135252
57724786 102 18114752641279066597
653340 110 18198059166845058672
69474 34 18334295370596655709
8509985 295 18334016103169682278

> <PUBCHEM_SHAPE_MULTIPOLES>
479.64
12.83
3.7
1.32
10.75
4.83
-0.18
-0.26
-4.04
-3.4
1.48
0.4
-0.14
-0.55

> <PUBCHEM_SHAPE_SELFOVERLAP>
1007.384

> <PUBCHEM_SHAPE_VOLUME>
272.2

> <PUBCHEM_COORDINATE_TYPE>
2
5
10

$$$$
