11912001
  -OEChem-12032416373D

 60 64  0     1  0  0  0  0  0999 V2000
   -0.7001    4.0765    0.8527 O   0  0  0  0  0  0  0  0  0  0  0  0
   -0.0986    1.1969    1.8932 O   0  0  0  0  0  0  0  0  0  0  0  0
   -4.8658    1.4234    1.8970 O   0  0  0  0  0  0  0  0  0  0  0  0
   -6.6954   -3.2104   -1.9533 O   0  0  0  0  0  0  0  0  0  0  0  0
    5.6938   -4.2181    1.5978 O   0  0  0  0  0  0  0  0  0  0  0  0
   -2.9380    1.1913    0.6288 N   0  0  0  0  0  0  0  0  0  0  0  0
    1.7914    3.0159   -0.6460 N   0  0  0  0  0  0  0  0  0  0  0  0
    3.1201    1.0822   -0.6041 N   0  0  0  0  0  0  0  0  0  0  0  0
    3.0933    2.5234   -2.5352 N   0  0  0  0  0  0  0  0  0  0  0  0
   -1.0905    2.7671    0.4067 C   0  0  1  0  0  0  0  0  0  0  0  0
    0.0932    1.8449    0.6244 C   0  0  1  0  0  0  0  0  0  0  0  0
   -2.1660    2.2041    1.3074 C   0  0  2  0  0  0  0  0  0  0  0  0
    1.2808    2.7762    0.6860 C   0  0  2  0  0  0  0  0  0  0  0  0
    0.6776    4.0477    1.2538 C   0  0  0  0  0  0  0  0  0  0  0  0
   -1.3574    1.6088    2.4463 C   0  0  0  0  0  0  0  0  0  0  0  0
   -4.2424    0.8828    0.9874 C   0  0  0  0  0  0  0  0  0  0  0  0
    2.6950    2.1823   -1.2808 C   0  0  0  0  0  0  0  0  0  0  0  0
   -4.8915   -0.2027    0.2079 C   0  0  0  0  0  0  0  0  0  0  0  0
    4.0007    0.2920   -1.2523 C   0  0  0  0  0  0  0  0  0  0  0  0
   -4.4730   -0.4370   -1.0856 C   0  0  0  0  0  0  0  0  0  0  0  0
   -5.8931   -0.9416    0.8026 C   0  0  0  0  0  0  0  0  0  0  0  0
    3.9747    1.6888   -3.1242 C   0  0  0  0  0  0  0  0  0  0  0  0
    4.4675    0.5476   -2.5255 C   0  0  0  0  0  0  0  0  0  0  0  0
    4.4379   -0.8704   -0.5168 C   0  0  0  0  0  0  0  0  0  0  0  0
   -5.0835   -1.4557   -1.8172 C   0  0  0  0  0  0  0  0  0  0  0  0
   -6.5035   -1.9606    0.0711 C   0  0  0  0  0  0  0  0  0  0  0  0
   -6.0986   -2.2175   -1.2388 C   0  0  0  0  0  0  0  0  0  0  0  0
    5.7126   -1.3983   -0.7332 C   0  0  0  0  0  0  0  0  0  0  0  0
    3.5872   -1.4718    0.4134 C   0  0  0  0  0  0  0  0  0  0  0  0
    6.1345   -2.5223   -0.0229 C   0  0  0  0  0  0  0  0  0  0  0  0
    4.0092   -2.5956    1.1238 C   0  0  0  0  0  0  0  0  0  0  0  0
    5.2828   -3.1209    0.9056 C   0  0  0  0  0  0  0  0  0  0  0  0
   -7.7276   -3.9491   -1.3017 C   0  0  0  0  0  0  0  0  0  0  0  0
    4.7726   -4.7798    2.5315 C   0  0  0  0  0  0  0  0  0  0  0  0
    0.1632    1.0583   -0.1338 H   0  0  0  0  0  0  0  0  0  0  0  0
   -1.3818    2.8516   -0.6452 H   0  0  0  0  0  0  0  0  0  0  0  0
    2.0799    2.4293    1.3512 H   0  0  0  0  0  0  0  0  0  0  0  0
   -2.8488    2.9721    1.6868 H   0  0  0  0  0  0  0  0  0  0  0  0
    1.1720    4.9641    0.9166 H   0  0  0  0  0  0  0  0  0  0  0  0
    0.6948    4.0327    2.3493 H   0  0  0  0  0  0  0  0  0  0  0  0
   -1.1441    2.3636    3.2112 H   0  0  0  0  0  0  0  0  0  0  0  0
   -1.8363    0.7530    2.9318 H   0  0  0  0  0  0  0  0  0  0  0  0
   -2.4491    0.6246   -0.0563 H   0  0  0  0  0  0  0  0  0  0  0  0
    1.4417    3.8039   -1.1793 H   0  0  0  0  0  0  0  0  0  0  0  0
   -3.7115    0.1548   -1.5829 H   0  0  0  0  0  0  0  0  0  0  0  0
   -6.2157   -0.7570    1.8230 H   0  0  0  0  0  0  0  0  0  0  0  0
    4.2792    1.9695   -4.1268 H   0  0  0  0  0  0  0  0  0  0  0  0
    5.1551   -0.0906   -3.0654 H   0  0  0  0  0  0  0  0  0  0  0  0
   -4.7696   -1.6465   -2.8398 H   0  0  0  0  0  0  0  0  0  0  0  0
   -7.2843   -2.5142    0.5815 H   0  0  0  0  0  0  0  0  0  0  0  0
    6.4175   -0.9494   -1.4279 H   0  0  0  0  0  0  0  0  0  0  0  0
    2.5845   -1.0934    0.5990 H   0  0  0  0  0  0  0  0  0  0  0  0
    7.1296   -2.9244   -0.1928 H   0  0  0  0  0  0  0  0  0  0  0  0
    3.2967   -3.0121    1.8276 H   0  0  0  0  0  0  0  0  0  0  0  0
   -8.0900   -4.6963   -2.0153 H   0  0  0  0  0  0  0  0  0  0  0  0
   -7.3444   -4.4959   -0.4335 H   0  0  0  0  0  0  0  0  0  0  0  0
   -8.5802   -3.3104   -1.0470 H   0  0  0  0  0  0  0  0  0  0  0  0
    3.8718   -5.1534    2.0329 H   0  0  0  0  0  0  0  0  0  0  0  0
    5.2646   -5.6432    2.9914 H   0  0  0  0  0  0  0  0  0  0  0  0
    4.5393   -4.0774    3.3389 H   0  0  0  0  0  0  0  0  0  0  0  0
  1 10  1  0  0  0  0
  1 14  1  0  0  0  0
  2 11  1  0  0  0  0
  2 15  1  0  0  0  0
  3 16  2  0  0  0  0
  4 27  1  0  0  0  0
  4 33  1  0  0  0  0
  5 32  1  0  0  0  0
  5 34  1  0  0  0  0
  6 12  1  0  0  0  0
  6 16  1  0  0  0  0
  6 43  1  0  0  0  0
  7 13  1  0  0  0  0
  7 17  1  0  0  0  0
  7 44  1  0  0  0  0
  8 17  1  0  0  0  0
  8 19  2  0  0  0  0
  9 17  2  0  0  0  0
  9 22  1  0  0  0  0
 10 11  1  0  0  0  0
 10 12  1  0  0  0  0
 10 36  1  0  0  0  0
 11 13  1  0  0  0  0
 11 35  1  0  0  0  0
 12 15  1  0  0  0  0
 12 38  1  0  0  0  0
 13 14  1  0  0  0  0
 13 37  1  0  0  0  0
 14 39  1  0  0  0  0
 14 40  1  0  0  0  0
 15 41  1  0  0  0  0
 15 42  1  0  0  0  0
 16 18  1  0  0  0  0
 18 20  2  0  0  0  0
 18 21  1  0  0  0  0
 19 23  1  0  0  0  0
 19 24  1  0  0  0  0
 20 25  1  0  0  0  0
 20 45  1  0  0  0  0
 21 26  2  0  0  0  0
 21 46  1  0  0  0  0
 22 23  2  0  0  0  0
 22 47  1  0  0  0  0
 23 48  1  0  0  0  0
 24 28  2  0  0  0  0
 24 29  1  0  0  0  0
 25 27  2  0  0  0  0
 25 49  1  0  0  0  0
 26 27  1  0  0  0  0
 26 50  1  0  0  0  0
 28 30  1  0  0  0  0
 28 51  1  0  0  0  0
 29 31  2  0  0  0  0
 29 52  1  0  0  0  0
 30 32  2  0  0  0  0
 30 53  1  0  0  0  0
 31 32  1  0  0  0  0
 31 54  1  0  0  0  0
 33 55  1  0  0  0  0
 33 56  1  0  0  0  0
 33 57  1  0  0  0  0
 34 58  1  0  0  0  0
 34 59  1  0  0  0  0
 34 60  1  0  0  0  0
M  END
> <PUBCHEM_COMPOUND_CID>
11912001

> <PUBCHEM_CONFORMER_RMSD>
1

> <PUBCHEM_CONFORMER_DIVERSEORDER>
1
181
124
154
140
126
159
86
190
104
97
8
48
108
93
166
9
121
58
111
73
164
167
187
56
142
13
107
39
57
122
160
62
14
72
152
105
65
102
89
143
21
82
66
129
79
38
132
131
118
27
175
69
137
182
103
180
146
63
115
110
95
98
133
49
125
161
153
50
189
77
176
37
16
52
92
44
99
64
6
113
59
4
17
150
155
43
78
162
138
149
47
135
194
31
172
80
91
141
177
12
83
100
45
5
24
94
165
61
134
123
171
90
179
41
15
174
46
84
139
75
156
145
40
157
109
158
114
34
23
96
101
42
55
88
195
7
30
151
81
74
184
178
54
173
85
119
51
163
188
191
32
117
87
112
168
130
144
76
3
18
136
128
116
185
36
147
28
148
33
20
170
70
10
106
35
11
68
60
183
53
192
127
193
29
26
169
120
25
19
22
71
67
2
186

> <PUBCHEM_MMFF94_PARTIAL_CHARGES>
45
1 -0.56
10 0.28
11 0.28
12 0.3
13 0.37
14 0.28
15 0.28
16 0.54
17 0.72
18 0.09
19 0.31
2 -0.56
20 -0.15
21 -0.15
22 0.16
23 -0.15
25 -0.15
26 -0.15
27 0.08
28 -0.15
29 -0.15
3 -0.57
30 -0.15
31 -0.15
32 0.08
33 0.28
34 0.28
4 -0.36
43 0.37
44 0.4
45 0.15
46 0.15
47 0.15
48 0.15
49 0.15
5 -0.36
50 0.15
51 0.15
52 0.15
53 0.15
54 0.15
6 -0.73
7 -0.87
8 -0.62
9 -0.62

> <PUBCHEM_EFFECTIVE_ROTOR_COUNT>
9.2

> <PUBCHEM_PHARMACOPHORE_FEATURES>
14
1 1 acceptor
1 2 acceptor
1 3 acceptor
1 4 acceptor
1 5 acceptor
1 6 donor
1 7 donor
1 8 acceptor
4 7 8 9 17 cation
5 1 10 11 13 14 rings
5 2 10 11 12 15 rings
6 18 20 21 25 26 27 rings
6 24 28 29 30 31 32 rings
6 8 9 17 19 22 23 rings

> <PUBCHEM_HEAVY_ATOM_COUNT>
34

> <PUBCHEM_ATOM_DEF_STEREO_COUNT>
4

> <PUBCHEM_ATOM_UDEF_STEREO_COUNT>
0

> <PUBCHEM_BOND_DEF_STEREO_COUNT>
0

> <PUBCHEM_BOND_UDEF_STEREO_COUNT>
0

> <PUBCHEM_ISOTOPIC_ATOM_COUNT>
0

> <PUBCHEM_COMPONENT_COUNT>
1

> <PUBCHEM_CACTVS_TAUTO_COUNT>
6

> <PUBCHEM_CONFORMER_ID>
00B5C34100000001

> <PUBCHEM_MMFF94_ENERGY>
122.6394

> <PUBCHEM_FEATURE_SELFOVERLAP>
71.757

> <PUBCHEM_SHAPE_FINGERPRINT>
10622 236 18189335663227994370
10908659 184 18272104785675975943
11069576 57 18115039528251465630
11135609 149 18114170922323869028
11135926 11 17388860511262264556
11227150 75 18188192214117065762
11478447 58 18124582343651050711
11497681 19 18192715537051949510
11607047 403 18198608012779592496
11828042 38 17821734957346665211
1200032 147 10015581740258478388
12166972 35 18259984851416359214
12559416 138 18043261141380088090
12977781 61 18123153910695384088
14040221 275 15697422361934967598
14068700 675 18338233744148882832
14340393 91 17750780087581326591
15163728 17 11386371417484403545
15320294 125 18124610678045368993
15419009 47 17607516934643598893
17324776 126 18189889812631143650
19303781 99 17969508104347939538
19315092 285 18335423460947466868
19319366 153 18191594249295749164
19841028 212 17700973499946003815
20775438 99 18190454059489751178
208703 8 18272934920611078678
21458453 9 15410026557477556608
21585483 132 18410849988720609299
21599406 157 17458910469734111863
21792938 131 18271800294475934819
24983565 74 17485080040682643527
25025965 108 17245541176416404282
25222932 49 18201440324293698244
2838139 119 13551745335613438549
4015057 19 17749688327916286760
4112364 45 9655310258701794315
439807 62 18408609175917699975
45266715 3 18194395830044474384
46194498 28 15576439858718984060
463206 1 18338811060340732312
50009960 94 18199729428070534522
50080093 196 17755584836888278538
57527295 17 18339658818161094561
59025328 239 17677056746434142980
6058803 2 18120399587319102068
6201460 15 18265330603678472282
6636735 143 14548739491721892655
6677587 24 16808427377370125644
96874 4 18411133610827234698

> <PUBCHEM_SHAPE_MULTIPOLES>
650.43
19.46
6.21
2.63
20.92
2.61
-0.8
28.58
-6.08
-3.54
2.51
-1.63
-0.08
-8.9

> <PUBCHEM_SHAPE_SELFOVERLAP>
1425.315

> <PUBCHEM_SHAPE_VOLUME>
351.4

> <PUBCHEM_COORDINATE_TYPE>
2
5
10

$$$$
