38026875
  -OEChem-12032416143D

 67 68  0     1  0  0  0  0  0999 V2000
    1.1535    2.8097    0.6275 O   0  0  0  0  0  0  0  0  0  0  0  0
   -3.6754   -2.8351    0.8603 O   0  0  0  0  0  0  0  0  0  0  0  0
    6.2403   -2.0978   -0.4347 O   0  0  0  0  0  0  0  0  0  0  0  0
    2.4119    0.8850    0.3016 N   0  0  0  0  0  0  0  0  0  0  0  0
   -3.4287   -1.4609   -0.9973 N   0  0  0  0  0  0  0  0  0  0  0  0
    5.0087   -0.1474   -0.1642 N   0  0  0  0  0  0  0  0  0  0  0  0
   -2.1597   -3.3851   -0.8080 N   0  0  0  0  0  0  0  0  0  0  0  0
   -2.7256    0.9391    0.6727 C   0  0  1  0  0  0  0  0  0  0  0  0
   -3.7340    0.9078   -0.5030 C   0  0  1  0  0  0  0  0  0  0  0  0
   -1.7807    2.1428    0.5368 C   0  0  0  0  0  0  0  0  0  0  0  0
   -0.9892    2.1157   -0.7844 C   0  0  2  0  0  0  0  0  0  0  0  0
   -3.4354    0.9874    2.0295 C   0  0  0  0  0  0  0  0  0  0  0  0
   -1.8841    1.8207   -1.9709 C   0  0  0  0  0  0  0  0  0  0  0  0
   -3.1127    1.2934   -1.8249 C   0  0  0  0  0  0  0  0  0  0  0  0
    0.1726    1.1187   -0.7119 C   0  0  0  0  0  0  0  0  0  0  0  0
   -4.3921   -0.4707   -0.6308 C   0  0  0  0  0  0  0  0  0  0  0  0
   -2.5314    0.4274    3.1231 C   0  0  0  0  0  0  0  0  0  0  0  0
   -3.8600    2.4153    2.3571 C   0  0  0  0  0  0  0  0  0  0  0  0
   -1.3521    2.1883   -3.3282 C   0  0  0  0  0  0  0  0  0  0  0  0
    1.2841    1.6867    0.1339 C   0  0  0  0  0  0  0  0  0  0  0  0
    3.5375    1.3656    1.1068 C   0  0  0  0  0  0  0  0  0  0  0  0
    2.5675   -0.4833   -0.2094 C   0  0  0  0  0  0  0  0  0  0  0  0
    4.8534    1.2209    0.3468 C   0  0  0  0  0  0  0  0  0  0  0  0
    3.8832   -0.6276   -0.9697 C   0  0  0  0  0  0  0  0  0  0  0  0
   -3.1349   -2.5861   -0.2165 C   0  0  0  0  0  0  0  0  0  0  0  0
    6.1355   -0.9501    0.0053 C   0  0  0  0  0  0  0  0  0  0  0  0
    7.2796   -0.3508    0.7832 C   0  0  0  0  0  0  0  0  0  0  0  0
   -1.6771   -4.6056   -0.2061 C   0  0  0  0  0  0  0  0  0  0  0  0
   -0.6548   -4.3241    0.8755 C   0  0  0  0  0  0  0  0  0  0  0  0
   -2.1188    0.0268    0.6395 H   0  0  0  0  0  0  0  0  0  0  0  0
   -4.5349    1.6348   -0.3185 H   0  0  0  0  0  0  0  0  0  0  0  0
   -1.1034    2.2039    1.3937 H   0  0  0  0  0  0  0  0  0  0  0  0
   -2.3501    3.0812    0.5203 H   0  0  0  0  0  0  0  0  0  0  0  0
   -0.5974    3.1310   -0.9396 H   0  0  0  0  0  0  0  0  0  0  0  0
   -4.3341    0.3623    2.0129 H   0  0  0  0  0  0  0  0  0  0  0  0
   -3.7299    1.1465   -2.7093 H   0  0  0  0  0  0  0  0  0  0  0  0
    0.5901    0.9386   -1.7087 H   0  0  0  0  0  0  0  0  0  0  0  0
   -0.1511    0.1590   -0.2983 H   0  0  0  0  0  0  0  0  0  0  0  0
   -5.1458   -0.4571   -1.4275 H   0  0  0  0  0  0  0  0  0  0  0  0
   -4.9125   -0.7626    0.2853 H   0  0  0  0  0  0  0  0  0  0  0  0
   -1.6140    1.0114    3.2453 H   0  0  0  0  0  0  0  0  0  0  0  0
   -2.2479   -0.6078    2.9046 H   0  0  0  0  0  0  0  0  0  0  0  0
   -3.0522    0.4283    4.0870 H   0  0  0  0  0  0  0  0  0  0  0  0
   -3.0201    3.0619    2.6326 H   0  0  0  0  0  0  0  0  0  0  0  0
   -4.5233    2.4015    3.2308 H   0  0  0  0  0  0  0  0  0  0  0  0
   -4.4268    2.8843    1.5474 H   0  0  0  0  0  0  0  0  0  0  0  0
   -0.4792    1.5818   -3.5857 H   0  0  0  0  0  0  0  0  0  0  0  0
   -1.0621    3.2439   -3.3499 H   0  0  0  0  0  0  0  0  0  0  0  0
   -2.0982    2.0384   -4.1160 H   0  0  0  0  0  0  0  0  0  0  0  0
   -2.9757   -1.3846   -1.9030 H   0  0  0  0  0  0  0  0  0  0  0  0
    3.5573    0.7604    2.0212 H   0  0  0  0  0  0  0  0  0  0  0  0
    3.3904    2.4090    1.4028 H   0  0  0  0  0  0  0  0  0  0  0  0
    1.7413   -0.7826   -0.8560 H   0  0  0  0  0  0  0  0  0  0  0  0
    2.5586   -1.1482    0.6628 H   0  0  0  0  0  0  0  0  0  0  0  0
    4.8639    1.8866   -0.5246 H   0  0  0  0  0  0  0  0  0  0  0  0
    5.6813    1.5141    0.9943 H   0  0  0  0  0  0  0  0  0  0  0  0
    4.0303   -1.6705   -1.2672 H   0  0  0  0  0  0  0  0  0  0  0  0
    3.8629   -0.0215   -1.8833 H   0  0  0  0  0  0  0  0  0  0  0  0
   -1.7593   -3.0913   -1.6936 H   0  0  0  0  0  0  0  0  0  0  0  0
    6.9707   -0.1502    1.8124 H   0  0  0  0  0  0  0  0  0  0  0  0
    7.6277    0.5664    0.3008 H   0  0  0  0  0  0  0  0  0  0  0  0
    8.1134   -1.0593    0.8079 H   0  0  0  0  0  0  0  0  0  0  0  0
   -2.5273   -5.1540    0.2129 H   0  0  0  0  0  0  0  0  0  0  0  0
   -1.2329   -5.2114   -1.0020 H   0  0  0  0  0  0  0  0  0  0  0  0
    0.1978   -3.7671    0.4725 H   0  0  0  0  0  0  0  0  0  0  0  0
   -1.0859   -3.7283    1.6868 H   0  0  0  0  0  0  0  0  0  0  0  0
   -0.2820   -5.2605    1.3016 H   0  0  0  0  0  0  0  0  0  0  0  0
  1 20  2  0  0  0  0
  2 25  2  0  0  0  0
  3 26  2  0  0  0  0
  4 20  1  0  0  0  0
  4 21  1  0  0  0  0
  4 22  1  0  0  0  0
  5 16  1  0  0  0  0
  5 25  1  0  0  0  0
  5 50  1  0  0  0  0
  6 23  1  0  0  0  0
  6 24  1  0  0  0  0
  6 26  1  0  0  0  0
  7 25  1  0  0  0  0
  7 28  1  0  0  0  0
  7 59  1  0  0  0  0
  8  9  1  0  0  0  0
  8 10  1  0  0  0  0
  8 12  1  0  0  0  0
  8 30  1  0  0  0  0
  9 14  1  0  0  0  0
  9 16  1  0  0  0  0
  9 31  1  0  0  0  0
 10 11  1  0  0  0  0
 10 32  1  0  0  0  0
 10 33  1  0  0  0  0
 11 13  1  0  0  0  0
 11 15  1  0  0  0  0
 11 34  1  0  0  0  0
 12 17  1  0  0  0  0
 12 18  1  0  0  0  0
 12 35  1  0  0  0  0
 13 14  2  0  0  0  0
 13 19  1  0  0  0  0
 14 36  1  0  0  0  0
 15 20  1  0  0  0  0
 15 37  1  0  0  0  0
 15 38  1  0  0  0  0
 16 39  1  0  0  0  0
 16 40  1  0  0  0  0
 17 41  1  0  0  0  0
 17 42  1  0  0  0  0
 17 43  1  0  0  0  0
 18 44  1  0  0  0  0
 18 45  1  0  0  0  0
 18 46  1  0  0  0  0
 19 47  1  0  0  0  0
 19 48  1  0  0  0  0
 19 49  1  0  0  0  0
 21 23  1  0  0  0  0
 21 51  1  0  0  0  0
 21 52  1  0  0  0  0
 22 24  1  0  0  0  0
 22 53  1  0  0  0  0
 22 54  1  0  0  0  0
 23 55  1  0  0  0  0
 23 56  1  0  0  0  0
 24 57  1  0  0  0  0
 24 58  1  0  0  0  0
 26 27  1  0  0  0  0
 27 60  1  0  0  0  0
 27 61  1  0  0  0  0
 27 62  1  0  0  0  0
 28 29  1  0  0  0  0
 28 63  1  0  0  0  0
 28 64  1  0  0  0  0
 29 65  1  0  0  0  0
 29 66  1  0  0  0  0
 29 67  1  0  0  0  0
M  END
> <PUBCHEM_COMPOUND_CID>
38026875

> <PUBCHEM_CONFORMER_RMSD>
1

> <PUBCHEM_CONFORMER_DIVERSEORDER>
1
126
154
128
73
167
140
109
11
178
38
106
147
131
169
174
160
93
158
92
177
118
14
127
104
116
99
120
141
117
161
98
114
88
153
27
113
90
110
56
144
35
18
173
36
26
112
179
150
146
54
148
44
172
138
181
132
130
28
61
103
171
42
155
45
84
48
119
53
51
62
166
101
41
25
94
85
142
59
129
96
168
122
76
75
149
23
175
162
12
86
105
70
74
108
107
111
133
4
24
58
13
145
115
39
137
79
46
152
33
83
165
89
65
43
30
64
134
87
125
67
37
164
180
8
80
77
15
20
176
34
63
170
68
102
156
121
66
17
151
123
143
72
139
157
6
69
163
97
22
40
124
21
81
50
3
135
55
47
16
136
71
60
78
32
5
91
7
10
57
19
49
29
2
9
82
31
100
52
159
95

> <PUBCHEM_MMFF94_PARTIAL_CHARGES>
26
1 -0.57
11 0.14
13 -0.28
14 -0.29
15 0.06
16 0.3
19 0.14
2 -0.57
20 0.57
21 0.3
22 0.3
23 0.3
24 0.3
25 0.69
26 0.57
27 0.06
28 0.3
3 -0.57
36 0.15
4 -0.66
5 -0.73
50 0.37
59 0.37
6 -0.66
7 -0.73
9 0.14

> <PUBCHEM_EFFECTIVE_ROTOR_COUNT>
12

> <PUBCHEM_PHARMACOPHORE_FEATURES>
8
1 1 acceptor
1 2 acceptor
1 3 acceptor
1 5 donor
1 7 donor
3 12 17 18 hydrophobe
6 4 6 21 22 23 24 rings
6 8 9 10 11 13 14 rings

> <PUBCHEM_HEAVY_ATOM_COUNT>
29

> <PUBCHEM_ATOM_DEF_STEREO_COUNT>
3

> <PUBCHEM_ATOM_UDEF_STEREO_COUNT>
0

> <PUBCHEM_BOND_DEF_STEREO_COUNT>
0

> <PUBCHEM_BOND_UDEF_STEREO_COUNT>
0

> <PUBCHEM_ISOTOPIC_ATOM_COUNT>
0

> <PUBCHEM_COMPONENT_COUNT>
1

> <PUBCHEM_CACTVS_TAUTO_COUNT>
3

> <PUBCHEM_CONFORMER_ID>
02443E7B00000001

> <PUBCHEM_MMFF94_ENERGY>
51.8902

> <PUBCHEM_FEATURE_SELFOVERLAP>
40.643

> <PUBCHEM_SHAPE_FINGERPRINT>
10305334 12 17844819079279489065
11477941 20 17095246908837322404
11552529 35 18058445580982994735
12539773 59 16840201816335542839
12633257 1 18342748385741629512
13402501 40 18412822490810169150
14068700 675 18130218384973109303
14251740 79 18342735234615430155
14844126 61 16558742395653866449
14856354 85 18201730556708608628
14950920 106 17417816217712310986
15799311 1 18340783584918309084
16067690 210 15984261786430026890
17627616 140 18116705214916356682
17780758 139 18131351907803376097
18927931 339 16950854617344115168
20775530 9 17543911660419447243
23466295 7 18117281561014783115
23559900 14 18268978963943140001
4073 2 18272649061348061952
4435113 14 17845674564172850526
469060 322 17895204349999239131
484985 159 18413108368671384267
5080951 261 18335403687070847690
5104073 3 17703501117884058640
531348 171 17750501889485242074
5486654 36 18412552032545554065

> <PUBCHEM_SHAPE_MULTIPOLES>
559.27
12.75
4.6
2.3
28.12
7.11
-0.16
2.87
-2.22
-4.32
0.18
-3.25
-1.85
0.07

> <PUBCHEM_SHAPE_SELFOVERLAP>
1123.373

> <PUBCHEM_SHAPE_VOLUME>
326.3

> <PUBCHEM_COORDINATE_TYPE>
2
5
10

$$$$
