26762303
  -OEChem-12032416333D

 64 67  0     1  0  0  0  0  0999 V2000
   -2.6265    3.0101    1.0076 S   0  0  0  0  0  0  0  0  0  0  0  0
   -5.7944   -1.2564   -0.3904 O   0  0  0  0  0  0  0  0  0  0  0  0
   -2.3199    3.2366    2.4071 O   0  0  0  0  0  0  0  0  0  0  0  0
   -3.3422    4.0156    0.2457 O   0  0  0  0  0  0  0  0  0  0  0  0
    2.3585   -3.2885   -0.9634 O   0  0  0  0  0  0  0  0  0  0  0  0
    2.4635    1.9875   -1.8339 O   0  0  0  0  0  0  0  0  0  0  0  0
   -2.3153   -1.7964    0.4206 N   0  0  1  0  0  0  0  0  0  0  0  0
   -4.1120   -2.0378   -1.7148 N   0  0  0  0  0  0  0  0  0  0  0  0
   -3.4272    1.5231    0.8369 N   0  0  0  0  0  0  0  0  0  0  0  0
    2.5216   -2.6036    1.2487 N   0  0  0  0  0  0  0  0  0  0  0  0
   -3.7453   -1.8485    0.7255 C   0  0  1  0  0  0  0  0  0  0  0  0
   -2.8157    0.2900    1.3835 C   0  0  1  0  0  0  0  0  0  0  0  0
   -3.9001   -0.7256    1.7468 C   0  0  0  0  0  0  0  0  0  0  0  0
   -1.9444   -2.6669   -0.6931 C   0  0  1  0  0  0  0  0  0  0  0  0
   -1.9548   -0.3833    0.3158 C   0  0  0  0  0  0  0  0  0  0  0  0
   -2.7119   -2.3126   -1.9624 C   0  0  0  0  0  0  0  0  0  0  0  0
   -4.6319   -1.6527   -0.4994 C   0  0  0  0  0  0  0  0  0  0  0  0
   -0.4363   -2.6774   -0.9466 C   0  0  0  0  0  0  0  0  0  0  0  0
    0.3333   -2.9889    0.3291 C   0  0  0  0  0  0  0  0  0  0  0  0
    1.8349   -2.9858    0.1055 C   0  0  0  0  0  0  0  0  0  0  0  0
   -1.1060    2.7052    0.1592 C   0  0  0  0  0  0  0  0  0  0  0  0
   -1.0039    2.9712   -1.2064 C   0  0  0  0  0  0  0  0  0  0  0  0
   -0.0084    2.1983    0.8550 C   0  0  0  0  0  0  0  0  0  0  0  0
    3.9623   -2.5230    1.2919 C   0  0  0  0  0  0  0  0  0  0  0  0
    0.1958    2.7303   -1.8759 C   0  0  0  0  0  0  0  0  0  0  0  0
    1.1912    1.9574    0.1855 C   0  0  0  0  0  0  0  0  0  0  0  0
    1.2934    2.2235   -1.1799 C   0  0  0  0  0  0  0  0  0  0  0  0
    4.4609   -1.1617    0.9016 C   0  0  0  0  0  0  0  0  0  0  0  0
    4.7465   -0.8806   -0.4344 C   0  0  0  0  0  0  0  0  0  0  0  0
    4.6384   -0.1783    1.8746 C   0  0  0  0  0  0  0  0  0  0  0  0
    5.2098    0.3841   -0.7975 C   0  0  0  0  0  0  0  0  0  0  0  0
    5.1015    1.0864    1.5117 C   0  0  0  0  0  0  0  0  0  0  0  0
    2.4974    2.2810   -3.2299 C   0  0  0  0  0  0  0  0  0  0  0  0
    5.3873    1.3675    0.1756 C   0  0  0  0  0  0  0  0  0  0  0  0
   -4.0169   -2.8127    1.1713 H   0  0  0  0  0  0  0  0  0  0  0  0
   -2.2354    0.5226    2.2833 H   0  0  0  0  0  0  0  0  0  0  0  0
   -4.9036   -0.2887    1.7752 H   0  0  0  0  0  0  0  0  0  0  0  0
   -3.6876   -1.1224    2.7484 H   0  0  0  0  0  0  0  0  0  0  0  0
   -2.2293   -3.6896   -0.4064 H   0  0  0  0  0  0  0  0  0  0  0  0
   -2.1564    0.0258   -0.6802 H   0  0  0  0  0  0  0  0  0  0  0  0
   -0.8929   -0.2594    0.5318 H   0  0  0  0  0  0  0  0  0  0  0  0
   -2.3007   -1.4229   -2.4523 H   0  0  0  0  0  0  0  0  0  0  0  0
   -2.6651   -3.1341   -2.6856 H   0  0  0  0  0  0  0  0  0  0  0  0
   -0.2030   -3.4278   -1.7129 H   0  0  0  0  0  0  0  0  0  0  0  0
   -0.0999   -1.7142   -1.3524 H   0  0  0  0  0  0  0  0  0  0  0  0
   -4.7200   -1.9639   -2.5246 H   0  0  0  0  0  0  0  0  0  0  0  0
   -4.0815    1.3975    0.0545 H   0  0  0  0  0  0  0  0  0  0  0  0
    0.0638   -3.9849    0.7006 H   0  0  0  0  0  0  0  0  0  0  0  0
    0.0985   -2.2713    1.1214 H   0  0  0  0  0  0  0  0  0  0  0  0
    2.0082   -2.3621    2.0912 H   0  0  0  0  0  0  0  0  0  0  0  0
   -1.8488    3.3584   -1.7688 H   0  0  0  0  0  0  0  0  0  0  0  0
   -0.0662    1.9816    1.9178 H   0  0  0  0  0  0  0  0  0  0  0  0
    4.3936   -3.2897    0.6372 H   0  0  0  0  0  0  0  0  0  0  0  0
    4.2748   -2.7675    2.3135 H   0  0  0  0  0  0  0  0  0  0  0  0
    0.2054    2.9570   -2.9366 H   0  0  0  0  0  0  0  0  0  0  0  0
    2.0400    1.5598    0.7331 H   0  0  0  0  0  0  0  0  0  0  0  0
    4.6161   -1.6371   -1.2032 H   0  0  0  0  0  0  0  0  0  0  0  0
    4.4169   -0.3842    2.9184 H   0  0  0  0  0  0  0  0  0  0  0  0
    5.4318    0.6033   -1.8378 H   0  0  0  0  0  0  0  0  0  0  0  0
    5.2381    1.8528    2.2690 H   0  0  0  0  0  0  0  0  0  0  0  0
    3.5026    2.0343   -3.5872 H   0  0  0  0  0  0  0  0  0  0  0  0
    2.3435    3.3485   -3.4206 H   0  0  0  0  0  0  0  0  0  0  0  0
    1.7962    1.6532   -3.7900 H   0  0  0  0  0  0  0  0  0  0  0  0
    5.7462    2.3527   -0.1073 H   0  0  0  0  0  0  0  0  0  0  0  0
  1  3  2  0  0  0  0
  1  4  2  0  0  0  0
  1  9  1  0  0  0  0
  1 21  1  0  0  0  0
  2 17  2  0  0  0  0
  5 20  2  0  0  0  0
  6 27  1  0  0  0  0
  6 33  1  0  0  0  0
  7 11  1  0  0  0  0
  7 14  1  0  0  0  0
  7 15  1  0  0  0  0
  8 16  1  0  0  0  0
  8 17  1  0  0  0  0
  8 46  1  0  0  0  0
  9 12  1  0  0  0  0
  9 47  1  0  0  0  0
 10 20  1  0  0  0  0
 10 24  1  0  0  0  0
 10 50  1  0  0  0  0
 11 13  1  0  0  0  0
 11 17  1  0  0  0  0
 11 35  1  0  0  0  0
 12 13  1  0  0  0  0
 12 15  1  0  0  0  0
 12 36  1  0  0  0  0
 13 37  1  0  0  0  0
 13 38  1  0  0  0  0
 14 16  1  0  0  0  0
 14 18  1  0  0  0  0
 14 39  1  0  0  0  0
 15 40  1  0  0  0  0
 15 41  1  0  0  0  0
 16 42  1  0  0  0  0
 16 43  1  0  0  0  0
 18 19  1  0  0  0  0
 18 44  1  0  0  0  0
 18 45  1  0  0  0  0
 19 20  1  0  0  0  0
 19 48  1  0  0  0  0
 19 49  1  0  0  0  0
 21 22  2  0  0  0  0
 21 23  1  0  0  0  0
 22 25  1  0  0  0  0
 22 51  1  0  0  0  0
 23 26  2  0  0  0  0
 23 52  1  0  0  0  0
 24 28  1  0  0  0  0
 24 53  1  0  0  0  0
 24 54  1  0  0  0  0
 25 27  2  0  0  0  0
 25 55  1  0  0  0  0
 26 27  1  0  0  0  0
 26 56  1  0  0  0  0
 28 29  2  0  0  0  0
 28 30  1  0  0  0  0
 29 31  1  0  0  0  0
 29 57  1  0  0  0  0
 30 32  2  0  0  0  0
 30 58  1  0  0  0  0
 31 34  2  0  0  0  0
 31 59  1  0  0  0  0
 32 34  1  0  0  0  0
 32 60  1  0  0  0  0
 33 61  1  0  0  0  0
 33 62  1  0  0  0  0
 33 63  1  0  0  0  0
 34 64  1  0  0  0  0
M  END
> <PUBCHEM_COMPOUND_CID>
26762303

> <PUBCHEM_CONFORMER_RMSD>
1.4

> <PUBCHEM_CONFORMER_DIVERSEORDER>
1
84
101
17
60
88
32
89
99
66
26
43
65
46
102
34
58
71
78
70
11
28
74
6
103
18
86
76
10
52
67
81
93
30
82
68
57
53
94
15
3
23
50
83
69
20
87
64
72
77
37
98
7
62
95
13
25
97
104
29
2
40
48
59
42
49
79
41
38
44
75
9
56
5
31
61
12
96
4
51
45
80
55
92
27
21
73
100
63
33
47
35
91
22
85
14
90
8
54
24
19
39
36
16

> <PUBCHEM_MMFF94_PARTIAL_CHARGES>
44
1 1.45
10 -0.73
11 0.33
12 0.36
14 0.27
15 0.27
16 0.3
17 0.57
19 0.06
2 -0.57
20 0.57
21 -0.01
22 -0.15
23 -0.15
24 0.44
25 -0.15
26 -0.15
27 0.08
28 -0.14
29 -0.15
3 -0.65
30 -0.15
31 -0.15
32 -0.15
33 0.28
34 -0.15
4 -0.65
46 0.37
47 0.42
5 -0.57
50 0.37
51 0.15
52 0.15
55 0.15
56 0.15
57 0.15
58 0.15
59 0.15
6 -0.36
60 0.15
64 0.15
7 -0.81
8 -0.73
9 -0.91

> <PUBCHEM_EFFECTIVE_ROTOR_COUNT>
11.2

> <PUBCHEM_PHARMACOPHORE_FEATURES>
13
1 10 donor
1 2 acceptor
1 3 acceptor
1 4 acceptor
1 5 acceptor
1 6 acceptor
1 7 cation
1 8 donor
1 9 donor
5 7 11 12 13 15 rings
6 21 22 23 25 26 27 rings
6 28 29 30 31 32 34 rings
6 7 8 11 14 16 17 rings

> <PUBCHEM_HEAVY_ATOM_COUNT>
34

> <PUBCHEM_ATOM_DEF_STEREO_COUNT>
3

> <PUBCHEM_ATOM_UDEF_STEREO_COUNT>
0

> <PUBCHEM_BOND_DEF_STEREO_COUNT>
0

> <PUBCHEM_BOND_UDEF_STEREO_COUNT>
0

> <PUBCHEM_ISOTOPIC_ATOM_COUNT>
0

> <PUBCHEM_COMPONENT_COUNT>
1

> <PUBCHEM_CACTVS_TAUTO_COUNT>
6

> <PUBCHEM_CONFORMER_ID>
01985C3F00000001

> <PUBCHEM_MMFF94_ENERGY>
74.0338

> <PUBCHEM_FEATURE_SELFOVERLAP>
66.218

> <PUBCHEM_SHAPE_FINGERPRINT>
10670039 82 18410580570259930366
10871710 139 18413387622865432731
11479125 193 15072033531194750278
11513181 2 18130792213926172302
12100795 323 18122903127501339442
12422481 6 18119834442283335161
12788726 201 18197518404666074420
1361 2 17182193843713437076
14068700 675 18271512212920916901
14394314 77 18270963565530663545
144659 178 17473261458635196824
14840074 17 18341052998814793899
15001296 14 18264204901623889896
15575132 122 18342736308483757147
15975801 100 17463997669923780886
20764821 26 18192703446027349706
21315764 21 17679562696098776223
463206 1 18124028189932017243
469060 322 17821723914952811196
474144 1 18042136516824232948
6036956 94 18190183579682318564
653340 110 18341607101520564496
9982175 49 18042701661765165628

> <PUBCHEM_SHAPE_MULTIPOLES>
654.28
11.08
5.39
2.18
5.84
1.18
-0.8
-3.17
2.33
-2.01
-0.7
0.47
1.12
-2.86

> <PUBCHEM_SHAPE_SELFOVERLAP>
1376.832

> <PUBCHEM_SHAPE_VOLUME>
368.1

> <PUBCHEM_COORDINATE_TYPE>
2
5
10

$$$$
