45784234
  -OEChem-12032416243D

 45 48  0     1  0  0  0  0  0999 V2000
    7.0968    0.9273   -0.4697 F   0  0  0  0  0  0  0  0  0  0  0  0
   -2.1394   -0.9146   -0.2749 N   0  0  1  0  0  0  0  0  0  0  0  0
   -6.0128    0.8337   -0.2125 N   0  0  0  0  0  0  0  0  0  0  0  0
    2.5609   -0.7133   -1.1841 N   0  0  0  0  0  0  0  0  0  0  0  0
    1.8566   -0.0747    0.8249 N   0  0  0  0  0  0  0  0  0  0  0  0
   -3.2512   -0.0655    0.1467 C   0  0  0  0  0  0  0  0  0  0  0  0
    0.1551   -1.2042   -0.6638 C   0  0  2  0  0  0  0  0  0  0  0  0
   -0.9499   -0.1397   -0.6344 C   0  0  0  0  0  0  0  0  0  0  0  0
   -1.6945   -1.8176    0.7866 C   0  0  0  0  0  0  0  0  0  0  0  0
   -0.3545   -2.3202    0.2648 C   0  0  0  0  0  0  0  0  0  0  0  0
   -4.4501   -0.9261    0.5541 C   0  0  0  0  0  0  0  0  0  0  0  0
   -3.6574    0.9005   -0.9702 C   0  0  0  0  0  0  0  0  0  0  0  0
   -5.6582   -0.0533    0.9042 C   0  0  0  0  0  0  0  0  0  0  0  0
   -4.8914    1.7135   -0.5704 C   0  0  0  0  0  0  0  0  0  0  0  0
    1.5153   -0.6517   -0.3054 C   0  0  0  0  0  0  0  0  0  0  0  0
   -7.1981    1.6242    0.1183 C   0  0  0  0  0  0  0  0  0  0  0  0
    3.6493   -0.1375   -0.5806 C   0  0  0  0  0  0  0  0  0  0  0  0
    3.1842    0.2529    0.6720 C   0  0  0  0  0  0  0  0  0  0  0  0
    4.9608    0.0690   -1.0099 C   0  0  0  0  0  0  0  0  0  0  0  0
    4.0660    0.8884    1.5625 C   0  0  0  0  0  0  0  0  0  0  0  0
    5.8248    0.7029   -0.1109 C   0  0  0  0  0  0  0  0  0  0  0  0
    5.3875    1.1060    1.1529 C   0  0  0  0  0  0  0  0  0  0  0  0
   -2.9516    0.5334    1.0194 H   0  0  0  0  0  0  0  0  0  0  0  0
    0.2060   -1.6224   -1.6797 H   0  0  0  0  0  0  0  0  0  0  0  0
   -0.7328    0.6398    0.1080 H   0  0  0  0  0  0  0  0  0  0  0  0
   -1.0386    0.3331   -1.6185 H   0  0  0  0  0  0  0  0  0  0  0  0
   -1.5483   -1.2922    1.7390 H   0  0  0  0  0  0  0  0  0  0  0  0
   -2.3722   -2.6618    0.9459 H   0  0  0  0  0  0  0  0  0  0  0  0
   -0.4965   -3.2401   -0.3163 H   0  0  0  0  0  0  0  0  0  0  0  0
    0.3321   -2.5495    1.0866 H   0  0  0  0  0  0  0  0  0  0  0  0
   -4.7220   -1.6128   -0.2590 H   0  0  0  0  0  0  0  0  0  0  0  0
   -4.2232   -1.5401    1.4329 H   0  0  0  0  0  0  0  0  0  0  0  0
   -2.8519    1.6080   -1.1977 H   0  0  0  0  0  0  0  0  0  0  0  0
   -3.8711    0.3467   -1.8944 H   0  0  0  0  0  0  0  0  0  0  0  0
   -5.4437    0.5267    1.8117 H   0  0  0  0  0  0  0  0  0  0  0  0
   -6.5022   -0.7154    1.1332 H   0  0  0  0  0  0  0  0  0  0  0  0
   -5.1737    2.3453   -1.4215 H   0  0  0  0  0  0  0  0  0  0  0  0
   -4.6381    2.3830    0.2623 H   0  0  0  0  0  0  0  0  0  0  0  0
   -8.0490    0.9693    0.3361 H   0  0  0  0  0  0  0  0  0  0  0  0
   -7.0333    2.2756    0.9842 H   0  0  0  0  0  0  0  0  0  0  0  0
   -7.4936    2.2489   -0.7320 H   0  0  0  0  0  0  0  0  0  0  0  0
    2.5395   -1.1113   -2.1137 H   0  0  0  0  0  0  0  0  0  0  0  0
    5.2981   -0.2448   -1.9911 H   0  0  0  0  0  0  0  0  0  0  0  0
    3.7359    1.2054    2.5465 H   0  0  0  0  0  0  0  0  0  0  0  0
    6.0827    1.5963    1.8294 H   0  0  0  0  0  0  0  0  0  0  0  0
  1 21  1  0  0  0  0
  2  6  1  0  0  0  0
  2  8  1  0  0  0  0
  2  9  1  0  0  0  0
  3 13  1  0  0  0  0
  3 14  1  0  0  0  0
  3 16  1  0  0  0  0
  4 15  1  0  0  0  0
  4 17  1  0  0  0  0
  4 42  1  0  0  0  0
  5 15  2  0  0  0  0
  5 18  1  0  0  0  0
  6 11  1  0  0  0  0
  6 12  1  0  0  0  0
  6 23  1  0  0  0  0
  7  8  1  0  0  0  0
  7 10  1  0  0  0  0
  7 15  1  0  0  0  0
  7 24  1  0  0  0  0
  8 25  1  0  0  0  0
  8 26  1  0  0  0  0
  9 10  1  0  0  0  0
  9 27  1  0  0  0  0
  9 28  1  0  0  0  0
 10 29  1  0  0  0  0
 10 30  1  0  0  0  0
 11 13  1  0  0  0  0
 11 31  1  0  0  0  0
 11 32  1  0  0  0  0
 12 14  1  0  0  0  0
 12 33  1  0  0  0  0
 12 34  1  0  0  0  0
 13 35  1  0  0  0  0
 13 36  1  0  0  0  0
 14 37  1  0  0  0  0
 14 38  1  0  0  0  0
 16 39  1  0  0  0  0
 16 40  1  0  0  0  0
 16 41  1  0  0  0  0
 17 18  2  0  0  0  0
 17 19  1  0  0  0  0
 18 20  1  0  0  0  0
 19 21  2  0  0  0  0
 19 43  1  0  0  0  0
 20 22  2  0  0  0  0
 20 44  1  0  0  0  0
 21 22  1  0  0  0  0
 22 45  1  0  0  0  0
M  END
> <PUBCHEM_COMPOUND_CID>
45784234

> <PUBCHEM_CONFORMER_RMSD>
0.6

> <PUBCHEM_CONFORMER_DIVERSEORDER>
1
80
61
26
52
84
82
90
25
81
56
75
70
12
77
16
63
78
57
69
17
85
73
51
24
89
49
46
60
68
88
38
44
71
83
59
72
79
21
86
18
11
58
41
14
9
53
29
74
76
27
10
7
40
34
30
36
13
45
87
67
50
37
66
48
6
20
28
35
43
62
65
15
54
5
31
55
22
8
47
2
33
23
39
4
19
42
64
3
32

> <PUBCHEM_MMFF94_PARTIAL_CHARGES>
23
1 -0.19
13 0.27
14 0.27
15 0.01
16 0.27
17 -0.15
18 0.23
19 -0.15
2 -0.81
20 -0.15
21 0.19
22 -0.15
3 -0.81
4 0.03
42 0.27
43 0.15
44 0.15
45 0.15
5 -0.57
6 0.27
7 0.18
8 0.27
9 0.27

> <PUBCHEM_EFFECTIVE_ROTOR_COUNT>
4.2

> <PUBCHEM_PHARMACOPHORE_FEATURES>
8
1 2 cation
1 3 cation
1 4 donor
3 4 5 15 cation
5 2 7 8 9 10 rings
5 4 5 15 17 18 rings
6 17 18 19 20 21 22 rings
6 3 6 11 12 13 14 rings

> <PUBCHEM_HEAVY_ATOM_COUNT>
22

> <PUBCHEM_ATOM_DEF_STEREO_COUNT>
1

> <PUBCHEM_ATOM_UDEF_STEREO_COUNT>
0

> <PUBCHEM_BOND_DEF_STEREO_COUNT>
0

> <PUBCHEM_BOND_UDEF_STEREO_COUNT>
0

> <PUBCHEM_ISOTOPIC_ATOM_COUNT>
0

> <PUBCHEM_COMPONENT_COUNT>
1

> <PUBCHEM_CACTVS_TAUTO_COUNT>
2

> <PUBCHEM_CONFORMER_ID>
02BA9CAA00000001

> <PUBCHEM_MMFF94_ENERGY>
30.4603

> <PUBCHEM_FEATURE_SELFOVERLAP>
40.705

> <PUBCHEM_SHAPE_FINGERPRINT>
10 15 17748830709300074257
10354089 29 16805324392568848692
106641 1 17095530616885620481
10692045 39 18189041006918109866
10763959 59 18272650168959604920
11089746 13 16272210803958949322
11128504 68 15051728703107409883
11646440 116 18343028800173044649
12236239 1 17095242540333133774
12403259 415 18130506434990875099
12516196 113 11458426834126399303
12596602 18 16660360381068444169
12633257 1 15647059269729780059
12730499 353 18131638871806534190
12969540 114 17917419926308005055
13288520 33 10231756682783074855
13402501 40 18343580750282749441
13533116 47 18341048506769820690
13673619 4 8790882986787584175
13862211 1 9943804487030606253
14123256 34 9511457849108648269
14251764 18 16805608083822523971
14341114 176 15068619379421998422
14341114 328 16877663452750933561
15003188 100 17632005450732314817
15183329 4 15913330177923589780
15238133 3 18040439910258502036
17870717 6 10952051165523664441
17980427 23 17822014246242134367
1813 80 13118282521057963154
18222031 100 9655571928687452302
193927 3 8718541757335440631
19784866 240 8934993802934567495
200 152 14979963583579016594
20281389 69 18334010579673278620
20374829 77 10303814280773052783
20567600 254 18409724050311132423
20645477 56 18412543232184061455
21033648 29 18272078452808608112
21150785 3 15267338535352252709
21267235 1 14056710233231118696
21637258 2 10881402045427165407
221357 26 16845573093397879296
22224240 67 18186802474764179667
23198884 109 15985385590772135593
23402655 69 16917066672324948486
23559900 14 11239700981739395471
249999 5 18189332368682994043
2838139 119 17917986166064326745
2916195 48 18342453763975345539
293599 30 18411980264871260367
29717793 49 14117526454419667112
312425 54 13190616092989015389
314173 85 8358261462168248751
3411729 13 18114460067980385994
3545911 37 18202004343176582494
3663271 9 16587742040426933849
4340502 62 16225767406630967394
465052 167 11314027968019081264
5104073 3 17969508105011934547
5385378 56 18262519182663396795
542803 24 17603864524761787598
56616090 284 11743839179277212319
5718773 13 8069441714205403001
59682541 35 18261122877012670537
59682541 52 17131562643709273374
5969126 39 18126560353112413055
59755656 520 18408878546864817583

> <PUBCHEM_SHAPE_MULTIPOLES>
425.55
17.82
1.69
1.15
3.13
0.43
0.14
-11.14
1.01
1.49
0.13
-0.84
-0.11
1.15

> <PUBCHEM_SHAPE_SELFOVERLAP>
917.799

> <PUBCHEM_SHAPE_VOLUME>
238.6

> <PUBCHEM_COORDINATE_TYPE>
2
5
10

$$$$
