40777693
  -OEChem-12032416183D

 60 63  0     1  0  0  0  0  0999 V2000
   -6.4316   -2.6605    2.4329 Cl  0  0  0  0  0  0  0  0  0  0  0  0
    2.2099    0.4802    0.4929 O   0  0  0  0  0  0  0  0  0  0  0  0
    3.6888    1.2521   -1.0854 O   0  0  0  0  0  0  0  0  0  0  0  0
   -3.8660    0.8046   -0.2988 N   0  0  0  0  0  0  0  0  0  0  0  0
   -4.2510    1.9953   -0.7888 N   0  0  0  0  0  0  0  0  0  0  0  0
    3.7734   -0.9336   -0.3118 N   0  0  0  0  0  0  0  0  0  0  0  0
   -0.7066    2.5701    0.2695 C   0  0  1  0  0  0  0  0  0  0  0  0
    0.4180    1.8003   -0.4491 C   0  0  0  0  0  0  0  0  0  0  0  0
    1.5890    1.7528    0.5367 C   0  0  1  0  0  0  0  0  0  0  0  0
   -2.0884    2.0503   -0.0553 C   0  0  0  0  0  0  0  0  0  0  0  0
   -0.3182    2.4403    1.7138 C   0  0  0  0  0  0  0  0  0  0  0  0
    0.9316    1.9885    1.8556 C   0  0  0  0  0  0  0  0  0  0  0  0
   -2.5793    0.7847    0.1536 C   0  0  0  0  0  0  0  0  0  0  0  0
   -3.1609    2.7523   -0.6373 C   0  0  0  0  0  0  0  0  0  0  0  0
   -1.9427   -0.4147    0.7351 C   0  0  0  0  0  0  0  0  0  0  0  0
   -3.1916    4.1610   -1.0686 C   0  0  0  0  0  0  0  0  0  0  0  0
   -4.7637   -0.2635   -0.2907 C   0  0  0  0  0  0  0  0  0  0  0  0
    3.2680    0.3481   -0.3711 C   0  0  0  0  0  0  0  0  0  0  0  0
    4.8926   -1.3918   -1.1022 C   0  0  1  0  0  0  0  0  0  0  0  0
   -5.1197   -0.8674    0.9152 C   0  0  0  0  0  0  0  0  0  0  0  0
   -5.3033   -0.7290   -1.4900 C   0  0  0  0  0  0  0  0  0  0  0  0
   -6.0151   -1.9367    0.9221 C   0  0  0  0  0  0  0  0  0  0  0  0
   -6.1987   -1.7985   -1.4830 C   0  0  0  0  0  0  0  0  0  0  0  0
    6.2090   -1.1339   -0.4014 C   0  0  0  0  0  0  0  0  0  0  0  0
   -6.5547   -2.4024   -0.2769 C   0  0  0  0  0  0  0  0  0  0  0  0
    4.7055   -2.8608   -1.4759 C   0  0  0  0  0  0  0  0  0  0  0  0
    6.2872   -1.2194    0.9887 C   0  0  0  0  0  0  0  0  0  0  0  0
    7.3439   -0.8108   -1.1451 C   0  0  0  0  0  0  0  0  0  0  0  0
   -7.5180   -3.5445   -0.3117 C   0  0  0  0  0  0  0  0  0  0  0  0
    7.5004   -0.9817    1.6350 C   0  0  0  0  0  0  0  0  0  0  0  0
    8.5569   -0.5731   -0.4991 C   0  0  0  0  0  0  0  0  0  0  0  0
    8.6352   -0.6585    0.8910 C   0  0  0  0  0  0  0  0  0  0  0  0
   -0.6474    3.6329    0.0017 H   0  0  0  0  0  0  0  0  0  0  0  0
    0.7132    2.3310   -1.3634 H   0  0  0  0  0  0  0  0  0  0  0  0
    0.1267    0.7973   -0.7806 H   0  0  0  0  0  0  0  0  0  0  0  0
    2.3051    2.5654    0.3600 H   0  0  0  0  0  0  0  0  0  0  0  0
   -0.9593    2.7118    2.5409 H   0  0  0  0  0  0  0  0  0  0  0  0
    1.4224    1.8512    2.8084 H   0  0  0  0  0  0  0  0  0  0  0  0
   -2.3233   -0.6036    1.7440 H   0  0  0  0  0  0  0  0  0  0  0  0
   -2.1291   -1.3019    0.1207 H   0  0  0  0  0  0  0  0  0  0  0  0
   -0.8593   -0.3216    0.8259 H   0  0  0  0  0  0  0  0  0  0  0  0
   -2.4237    4.3476   -1.8265 H   0  0  0  0  0  0  0  0  0  0  0  0
   -4.1598    4.4348   -1.5009 H   0  0  0  0  0  0  0  0  0  0  0  0
   -3.0054    4.8266   -0.2195 H   0  0  0  0  0  0  0  0  0  0  0  0
    4.8823   -0.8051   -2.0303 H   0  0  0  0  0  0  0  0  0  0  0  0
   -4.7170   -0.4967    1.8555 H   0  0  0  0  0  0  0  0  0  0  0  0
   -5.0332   -0.2733   -2.4395 H   0  0  0  0  0  0  0  0  0  0  0  0
    3.3544   -1.5750    0.3556 H   0  0  0  0  0  0  0  0  0  0  0  0
   -6.6084   -2.1483   -2.4269 H   0  0  0  0  0  0  0  0  0  0  0  0
    4.6863   -3.5004   -0.5859 H   0  0  0  0  0  0  0  0  0  0  0  0
    3.7602   -3.0090   -2.0095 H   0  0  0  0  0  0  0  0  0  0  0  0
    5.5188   -3.2112   -2.1208 H   0  0  0  0  0  0  0  0  0  0  0  0
    5.4246   -1.4839    1.5936 H   0  0  0  0  0  0  0  0  0  0  0  0
    7.2966   -0.7429   -2.2287 H   0  0  0  0  0  0  0  0  0  0  0  0
   -7.0556   -4.4505    0.0937 H   0  0  0  0  0  0  0  0  0  0  0  0
   -8.4190   -3.3056    0.2629 H   0  0  0  0  0  0  0  0  0  0  0  0
   -7.8392   -3.7763   -1.3332 H   0  0  0  0  0  0  0  0  0  0  0  0
    7.5625   -1.0516    2.7171 H   0  0  0  0  0  0  0  0  0  0  0  0
    9.4407   -0.3222   -1.0782 H   0  0  0  0  0  0  0  0  0  0  0  0
    9.5800   -0.4743    1.3940 H   0  0  0  0  0  0  0  0  0  0  0  0
  1 22  1  0  0  0  0
  2  9  1  0  0  0  0
  2 18  1  0  0  0  0
  3 18  2  0  0  0  0
  4  5  1  0  0  0  0
  4 13  1  0  0  0  0
  4 17  1  0  0  0  0
  5 14  2  0  0  0  0
  6 18  1  0  0  0  0
  6 19  1  0  0  0  0
  6 48  1  0  0  0  0
  7  8  1  0  0  0  0
  7 10  1  0  0  0  0
  7 11  1  0  0  0  0
  7 33  1  0  0  0  0
  8  9  1  0  0  0  0
  8 34  1  0  0  0  0
  8 35  1  0  0  0  0
  9 12  1  0  0  0  0
  9 36  1  0  0  0  0
 10 13  2  0  0  0  0
 10 14  1  0  0  0  0
 11 12  2  0  0  0  0
 11 37  1  0  0  0  0
 12 38  1  0  0  0  0
 13 15  1  0  0  0  0
 14 16  1  0  0  0  0
 15 39  1  0  0  0  0
 15 40  1  0  0  0  0
 15 41  1  0  0  0  0
 16 42  1  0  0  0  0
 16 43  1  0  0  0  0
 16 44  1  0  0  0  0
 17 20  2  0  0  0  0
 17 21  1  0  0  0  0
 19 24  1  0  0  0  0
 19 26  1  0  0  0  0
 19 45  1  0  0  0  0
 20 22  1  0  0  0  0
 20 46  1  0  0  0  0
 21 23  2  0  0  0  0
 21 47  1  0  0  0  0
 22 25  2  0  0  0  0
 23 25  1  0  0  0  0
 23 49  1  0  0  0  0
 24 27  2  0  0  0  0
 24 28  1  0  0  0  0
 25 29  1  0  0  0  0
 26 50  1  0  0  0  0
 26 51  1  0  0  0  0
 26 52  1  0  0  0  0
 27 30  1  0  0  0  0
 27 53  1  0  0  0  0
 28 31  2  0  0  0  0
 28 54  1  0  0  0  0
 29 55  1  0  0  0  0
 29 56  1  0  0  0  0
 29 57  1  0  0  0  0
 30 32  2  0  0  0  0
 30 58  1  0  0  0  0
 31 32  1  0  0  0  0
 31 59  1  0  0  0  0
 32 60  1  0  0  0  0
M  END
> <PUBCHEM_COMPOUND_CID>
40777693

> <PUBCHEM_CONFORMER_RMSD>
1.2

> <PUBCHEM_CONFORMER_DIVERSEORDER>
1
37
102
48
40
82
103
105
110
114
60
63
108
61
97
135
133
51
47
91
121
118
43
55
140
96
136
92
27
2
100
130
111
31
85
84
115
24
30
106
34
101
71
62
95
50
134
14
18
129
127
109
20
76
123
90
86
83
124
58
81
12
23
93
15
75
29
46
122
9
94
17
66
72
54
139
3
99
89
49
141
67
107
56
132
13
116
117
57
28
128
36
69
21
45
68
6
22
78
70
120
44
38
65
77
32
59
25
11
5
7
131
39
79
52
137
87
113
73
53
35
112
98
8
42
16
19
41
88
104
74
125
64
80
126
138
10
33
26
119
4

> <PUBCHEM_MMFF94_PARTIAL_CHARGES>
41
1 -0.18
10 -0.18
11 -0.29
12 -0.29
13 -0.33
14 0.11
15 0.18
16 0.18
17 -0.02
18 0.78
19 0.44
2 -0.43
20 -0.15
21 -0.15
22 0.18
23 -0.15
24 -0.14
25 -0.14
27 -0.15
28 -0.15
29 0.14
3 -0.57
30 -0.15
31 -0.15
32 -0.15
37 0.15
38 0.15
4 0.59
46 0.15
47 0.15
48 0.37
49 0.15
5 -0.71
53 0.15
54 0.15
58 0.15
59 0.15
6 -0.73
60 0.15
7 0.32
9 0.42

> <PUBCHEM_EFFECTIVE_ROTOR_COUNT>
7.6

> <PUBCHEM_PHARMACOPHORE_FEATURES>
7
1 3 acceptor
1 5 acceptor
1 6 donor
5 4 5 10 13 14 rings
5 7 8 9 11 12 rings
6 17 20 21 22 23 25 rings
6 24 27 28 30 31 32 rings

> <PUBCHEM_HEAVY_ATOM_COUNT>
32

> <PUBCHEM_ATOM_DEF_STEREO_COUNT>
3

> <PUBCHEM_ATOM_UDEF_STEREO_COUNT>
0

> <PUBCHEM_BOND_DEF_STEREO_COUNT>
0

> <PUBCHEM_BOND_UDEF_STEREO_COUNT>
0

> <PUBCHEM_ISOTOPIC_ATOM_COUNT>
0

> <PUBCHEM_COMPONENT_COUNT>
1

> <PUBCHEM_CACTVS_TAUTO_COUNT>
2

> <PUBCHEM_CONFORMER_ID>
026E37DD00000001

> <PUBCHEM_MMFF94_ENERGY>
85.3887

> <PUBCHEM_FEATURE_SELFOVERLAP>
35.523

> <PUBCHEM_SHAPE_FINGERPRINT>
10 15 11095888181278554863
10391435 84 18341885256329241308
11409948 8 18059282284717047930
117089 54 18265059196869682435
11809386 21 18261107427071190649
12643181 29 18411413974182564085
13540713 4 18269816731990792825
1361 4 18336827468883153546
13631057 29 18410293584370342864
13673619 4 18342178890500908753
13690498 29 18409162199816987933
13782708 43 18411415116105775136
14347332 77 18409451379833035277
14647877 103 11671784879321029570
14951699 99 10952056657958693481
15183329 4 16950282880536024048
15510800 12 18410009983205791155
15803439 3 14779262038243444953
17686467 74 18261388975642970560
17780758 139 17489309655533674849
19246450 95 16845026624030161483
19303781 99 18261949764721394815
20105231 36 17313392266830978483
21223535 225 14418689195594432806
21344244 246 18262242248116451780
21585482 111 8790347524868229927
21682296 61 18339645655077472203
21792938 169 17699269272921002465
21796203 349 16773797038824669488
22149856 69 17703240529248730258
2260408 40 15625955230830410644
23559900 14 18199738164308977336
23569917 315 18271251500977581102
23569943 247 18412548739097721515
2747138 104 17632294550167318168
2838139 119 11098150980071007128
3383291 50 18412545439565922642
397638 26 9151170939849946454
4169191 19 9295299326323308003
4330586 98 17677623127401664923
437795 139 18041005041638461647
437795 163 18335417963737863690
439807 62 18408044026534750365
4461854 278 17203610423789810614
513202 73 18410860980205570773
54039377 194 18341619230545099390
5718773 13 18340484555983134511
636775 8 18201446857349847214
6376802 90 18050567335557908444
6636798 310 16056311882235952647
6698420 124 17696198002412390065
999808 66 18201721742981659671

> <PUBCHEM_SHAPE_MULTIPOLES>
633.73
25.84
4.11
1.68
31.02
1.63
0.58
-27.09
0.06
-7.41
-0.38
-0.54
-0.49
2.09

> <PUBCHEM_SHAPE_SELFOVERLAP>
1359.246

> <PUBCHEM_SHAPE_VOLUME>
353

> <PUBCHEM_COORDINATE_TYPE>
2
5
10

$$$$
