11912819
  -OEChem-12032416373D

 60 64  0     1  0  0  0  0  0999 V2000
    0.3073    0.9500    2.1151 O   0  0  0  0  0  0  0  0  0  0  0  0
   -0.5204    3.8077    1.1745 O   0  0  0  0  0  0  0  0  0  0  0  0
   -4.4683    2.0881    0.4836 O   0  0  0  0  0  0  0  0  0  0  0  0
   -5.7003   -0.0078   -0.6723 O   0  0  0  0  0  0  0  0  0  0  0  0
    6.3258   -4.1184    1.3151 O   0  0  0  0  0  0  0  0  0  0  0  0
   -2.6120    0.8087    1.0573 N   0  0  0  0  0  0  0  0  0  0  0  0
    1.9089    2.9067   -0.5183 N   0  0  0  0  0  0  0  0  0  0  0  0
    3.3183    1.0627   -0.5937 N   0  0  0  0  0  0  0  0  0  0  0  0
    3.0756    2.5294   -2.4902 N   0  0  0  0  0  0  0  0  0  0  0  0
   -0.8718    2.4858    0.7332 C   0  0  1  0  0  0  0  0  0  0  0  0
    0.3719    1.6262    0.8482 C   0  0  1  0  0  0  0  0  0  0  0  0
   -1.8478    1.8517    1.6978 C   0  0  2  0  0  0  0  0  0  0  0  0
    1.5097    2.6197    0.8421 C   0  0  2  0  0  0  0  0  0  0  0  0
   -0.9282    1.2845    2.7645 C   0  0  0  0  0  0  0  0  0  0  0  0
    0.8824    3.8480    1.4754 C   0  0  0  0  0  0  0  0  0  0  0  0
   -3.8659    1.0181    0.5011 C   0  0  0  0  0  0  0  0  0  0  0  0
    2.8065    2.1325   -1.2319 C   0  0  0  0  0  0  0  0  0  0  0  0
   -4.4317   -0.2499   -0.1018 C   0  0  0  0  0  0  0  0  0  0  0  0
    4.1897    0.3308   -1.3184 C   0  0  0  0  0  0  0  0  0  0  0  0
    3.9546    1.7524   -3.1567 C   0  0  0  0  0  0  0  0  0  0  0  0
    4.5489    0.6304   -2.6166 C   0  0  0  0  0  0  0  0  0  0  0  0
    4.7396   -0.8173   -0.6382 C   0  0  0  0  0  0  0  0  0  0  0  0
   -6.5931   -1.0533   -0.6838 C   0  0  0  0  0  0  0  0  0  0  0  0
    6.1177   -0.9199   -0.4481 C   0  0  0  0  0  0  0  0  0  0  0  0
    3.8945   -1.8245   -0.1724 C   0  0  0  0  0  0  0  0  0  0  0  0
   -6.1286   -2.3665   -0.7586 C   0  0  0  0  0  0  0  0  0  0  0  0
   -7.9635   -0.8009   -0.6218 C   0  0  0  0  0  0  0  0  0  0  0  0
    6.6507   -2.0296    0.2077 C   0  0  0  0  0  0  0  0  0  0  0  0
    4.4274   -2.9343    0.4833 C   0  0  0  0  0  0  0  0  0  0  0  0
    5.8055   -3.0368    0.6734 C   0  0  0  0  0  0  0  0  0  0  0  0
   -7.0344   -3.4271   -0.7713 C   0  0  0  0  0  0  0  0  0  0  0  0
   -8.8694   -1.8615   -0.6344 C   0  0  0  0  0  0  0  0  0  0  0  0
   -8.4048   -3.1746   -0.7092 C   0  0  0  0  0  0  0  0  0  0  0  0
    5.4053   -5.1112    1.7655 C   0  0  0  0  0  0  0  0  0  0  0  0
   -1.2409    2.5701   -0.2941 H   0  0  0  0  0  0  0  0  0  0  0  0
    0.4277    0.8559    0.0725 H   0  0  0  0  0  0  0  0  0  0  0  0
   -2.5430    2.5769    2.1346 H   0  0  0  0  0  0  0  0  0  0  0  0
    2.3716    2.3082    1.4433 H   0  0  0  0  0  0  0  0  0  0  0  0
   -0.7006    2.0382    3.5263 H   0  0  0  0  0  0  0  0  0  0  0  0
   -1.3265    0.3973    3.2661 H   0  0  0  0  0  0  0  0  0  0  0  0
    0.9796    3.8177    2.5663 H   0  0  0  0  0  0  0  0  0  0  0  0
    1.3016    4.7948    1.1210 H   0  0  0  0  0  0  0  0  0  0  0  0
   -2.1839   -0.1087    0.9670 H   0  0  0  0  0  0  0  0  0  0  0  0
    1.4804    3.6828   -1.0100 H   0  0  0  0  0  0  0  0  0  0  0  0
   -4.4810   -0.9809    0.7163 H   0  0  0  0  0  0  0  0  0  0  0  0
   -3.7436   -0.6033   -0.8783 H   0  0  0  0  0  0  0  0  0  0  0  0
    4.1741    2.0665   -4.1716 H   0  0  0  0  0  0  0  0  0  0  0  0
    5.2458    0.0340   -3.1924 H   0  0  0  0  0  0  0  0  0  0  0  0
    6.7939   -0.1434   -0.7985 H   0  0  0  0  0  0  0  0  0  0  0  0
    2.8179   -1.7625   -0.3145 H   0  0  0  0  0  0  0  0  0  0  0  0
   -5.0716   -2.6034   -0.8354 H   0  0  0  0  0  0  0  0  0  0  0  0
   -8.3309    0.2200   -0.5635 H   0  0  0  0  0  0  0  0  0  0  0  0
    7.7249   -2.1033    0.3543 H   0  0  0  0  0  0  0  0  0  0  0  0
    3.7145   -3.6796    0.8190 H   0  0  0  0  0  0  0  0  0  0  0  0
   -6.6734   -4.4495   -0.8358 H   0  0  0  0  0  0  0  0  0  0  0  0
   -9.9364   -1.6649   -0.5864 H   0  0  0  0  0  0  0  0  0  0  0  0
   -9.1102   -4.0004   -0.7206 H   0  0  0  0  0  0  0  0  0  0  0  0
    4.7190   -4.7111    2.5195 H   0  0  0  0  0  0  0  0  0  0  0  0
    4.8756   -5.5782    0.9282 H   0  0  0  0  0  0  0  0  0  0  0  0
    5.9909   -5.8982    2.2520 H   0  0  0  0  0  0  0  0  0  0  0  0
  1 11  1  0  0  0  0
  1 14  1  0  0  0  0
  2 10  1  0  0  0  0
  2 15  1  0  0  0  0
  3 16  2  0  0  0  0
  4 18  1  0  0  0  0
  4 23  1  0  0  0  0
  5 30  1  0  0  0  0
  5 34  1  0  0  0  0
  6 12  1  0  0  0  0
  6 16  1  0  0  0  0
  6 43  1  0  0  0  0
  7 13  1  0  0  0  0
  7 17  1  0  0  0  0
  7 44  1  0  0  0  0
  8 17  1  0  0  0  0
  8 19  2  0  0  0  0
  9 17  2  0  0  0  0
  9 20  1  0  0  0  0
 10 11  1  0  0  0  0
 10 12  1  0  0  0  0
 10 35  1  0  0  0  0
 11 13  1  0  0  0  0
 11 36  1  0  0  0  0
 12 14  1  0  0  0  0
 12 37  1  0  0  0  0
 13 15  1  0  0  0  0
 13 38  1  0  0  0  0
 14 39  1  0  0  0  0
 14 40  1  0  0  0  0
 15 41  1  0  0  0  0
 15 42  1  0  0  0  0
 16 18  1  0  0  0  0
 18 45  1  0  0  0  0
 18 46  1  0  0  0  0
 19 21  1  0  0  0  0
 19 22  1  0  0  0  0
 20 21  2  0  0  0  0
 20 47  1  0  0  0  0
 21 48  1  0  0  0  0
 22 24  2  0  0  0  0
 22 25  1  0  0  0  0
 23 26  2  0  0  0  0
 23 27  1  0  0  0  0
 24 28  1  0  0  0  0
 24 49  1  0  0  0  0
 25 29  2  0  0  0  0
 25 50  1  0  0  0  0
 26 31  1  0  0  0  0
 26 51  1  0  0  0  0
 27 32  2  0  0  0  0
 27 52  1  0  0  0  0
 28 30  2  0  0  0  0
 28 53  1  0  0  0  0
 29 30  1  0  0  0  0
 29 54  1  0  0  0  0
 31 33  2  0  0  0  0
 31 55  1  0  0  0  0
 32 33  1  0  0  0  0
 32 56  1  0  0  0  0
 33 57  1  0  0  0  0
 34 58  1  0  0  0  0
 34 59  1  0  0  0  0
 34 60  1  0  0  0  0
M  END
> <PUBCHEM_COMPOUND_CID>
11912819

> <PUBCHEM_CONFORMER_RMSD>
1

> <PUBCHEM_CONFORMER_DIVERSEORDER>
1
80
128
70
92
127
112
51
132
116
69
154
57
121
140
106
152
120
68
83
33
180
89
102
90
138
54
105
108
78
119
129
20
62
169
25
37
115
134
35
176
31
103
153
88
135
36
161
175
150
87
45
148
91
157
85
13
147
113
79
98
143
162
14
178
139
144
59
94
171
28
18
110
177
179
44
34
21
136
118
61
38
42
47
96
107
165
65
82
72
163
124
122
104
32
149
71
46
17
76
81
99
74
126
29
75
158
40
73
159
160
56
67
66
24
156
93
151
167
117
49
142
109
170
166
130
137
100
133
64
123
5
114
52
22
97
9
6
19
39
11
173
43
50
27
131
63
2
95
30
23
101
86
172
145
16
4
146
58
77
168
10
26
164
174
48
3
53
141
15
7
111
55
155
8
60
41
84
12
125

> <PUBCHEM_MMFF94_PARTIAL_CHARGES>
46
1 -0.56
10 0.28
11 0.28
12 0.3
13 0.37
14 0.28
15 0.28
16 0.57
17 0.72
18 0.34
19 0.31
2 -0.56
20 0.16
21 -0.15
23 0.08
24 -0.15
25 -0.15
26 -0.15
27 -0.15
28 -0.15
29 -0.15
3 -0.57
30 0.08
31 -0.15
32 -0.15
33 -0.15
34 0.28
4 -0.36
43 0.37
44 0.4
47 0.15
48 0.15
49 0.15
5 -0.36
50 0.15
51 0.15
52 0.15
53 0.15
54 0.15
55 0.15
56 0.15
57 0.15
6 -0.73
7 -0.87
8 -0.62
9 -0.62

> <PUBCHEM_EFFECTIVE_ROTOR_COUNT>
10.2

> <PUBCHEM_PHARMACOPHORE_FEATURES>
14
1 1 acceptor
1 2 acceptor
1 3 acceptor
1 4 acceptor
1 5 acceptor
1 6 donor
1 7 donor
1 8 acceptor
4 7 8 9 17 cation
5 1 10 11 12 14 rings
5 2 10 11 13 15 rings
6 22 24 25 28 29 30 rings
6 23 26 27 31 32 33 rings
6 8 9 17 19 20 21 rings

> <PUBCHEM_HEAVY_ATOM_COUNT>
34

> <PUBCHEM_ATOM_DEF_STEREO_COUNT>
4

> <PUBCHEM_ATOM_UDEF_STEREO_COUNT>
0

> <PUBCHEM_BOND_DEF_STEREO_COUNT>
0

> <PUBCHEM_BOND_UDEF_STEREO_COUNT>
0

> <PUBCHEM_ISOTOPIC_ATOM_COUNT>
0

> <PUBCHEM_COMPONENT_COUNT>
1

> <PUBCHEM_CACTVS_TAUTO_COUNT>
6

> <PUBCHEM_CONFORMER_ID>
00B5C67300000001

> <PUBCHEM_MMFF94_ENERGY>
115.1269

> <PUBCHEM_FEATURE_SELFOVERLAP>
71.764

> <PUBCHEM_SHAPE_FINGERPRINT>
10622 236 18190183391040692042
10693767 8 18335135401701248113
10883706 17 18337956804526358755
10908659 184 17917714630090696695
11135926 11 17244467125427916124
11227150 75 18261383391863700346
11476731 50 18336828569117747446
11478447 62 17823406112374003722
11607047 403 18199452433414841608
11828042 38 17749399156749319939
1200032 147 9799688216928868980
12047536 79 12391251369950973571
12758862 65 17203327853148006426
13553644 42 18343024402907385655
13782708 43 18341609382770502629
14068700 675 18337952269224861128
14340393 91 17822845378116337125
14664723 55 10881681256677088374
14951699 99 8430322342314743145
15230672 131 18272091592174025335
15510800 12 17346329188847692749
17134984 74 18268434701249427404
17324776 126 18118399545181556586
19304671 126 15575001714109357324
19315092 285 18408043991974714940
19841028 212 18413106164783618363
20691028 202 8430300330048610598
20721686 124 18047749592694747416
20775438 99 18114744940476194378
208703 8 18201442450033094982
21585481 104 17748823013124960189
21585483 132 18261384499543529698
21792938 131 18342733049400359651
21895439 516 17530968025323277595
23569943 247 18411702076605322227
25025965 108 17391345209936315450
42767 23 18409167692684274031
437795 139 18201439147140109489
439807 62 18411983585730222071
4408954 87 17346020230845481310
4440575 13 18410851062889532390
4760202 70 18334586716558381742
57035037 87 12685680862313259710
57527295 17 18340225045290750232
59682541 52 18040157344122708397
6201460 15 18121214273194095770
6677587 24 17026557307287295500
6697151 62 17631999932744370249
96874 4 18338232674264656586

> <PUBCHEM_SHAPE_MULTIPOLES>
650.43
23.99
5.94
2.31
45.19
3.58
-0.62
34.31
-8.34
-5.7
2.77
-3.12
-1.41
-6.91

> <PUBCHEM_SHAPE_SELFOVERLAP>
1417.851

> <PUBCHEM_SHAPE_VOLUME>
351.9

> <PUBCHEM_COORDINATE_TYPE>
2
5
10

$$$$
