45783581
  -OEChem-12032416353D

 58 62  0     1  0  0  0  0  0999 V2000
    5.3968    4.9275    0.3906 F   0  0  0  0  0  0  0  0  0  0  0  0
   -4.7966    1.0151    1.0047 O   0  0  0  0  0  0  0  0  0  0  0  0
    1.1619   -3.1040   -1.2370 O   0  0  0  0  0  0  0  0  0  0  0  0
    4.0390   -1.2412    0.0889 N   0  0  1  0  0  0  0  0  0  0  0  0
    1.0587   -1.3806    0.1900 N   0  0  0  0  0  0  0  0  0  0  0  0
   -0.1838   -2.7184   -1.1885 N   0  0  0  0  0  0  0  0  0  0  0  0
   -3.7325   -0.6645   -0.1904 N   0  0  0  0  0  0  0  0  0  0  0  0
    3.3179   -2.4786   -0.2705 C   0  0  1  0  0  0  0  0  0  0  0  0
    3.6839   -3.4810    0.8396 C   0  0  0  0  0  0  0  0  0  0  0  0
    4.6604   -2.7381    1.7403 C   0  0  0  0  0  0  0  0  0  0  0  0
    5.2234   -1.6565    0.8406 C   0  0  0  0  0  0  0  0  0  0  0  0
   -5.9858    0.5546    0.3721 C   0  0  0  0  0  0  0  0  0  0  0  0
    4.3822   -0.4205   -1.0653 C   0  0  0  0  0  0  0  0  0  0  0  0
   -6.1734    1.2815   -0.9586 C   0  0  0  0  0  0  0  0  0  0  0  0
   -7.1783    0.7690    1.3036 C   0  0  0  0  0  0  0  0  0  0  0  0
   -7.4867    0.8930   -1.6300 C   0  0  0  0  0  0  0  0  0  0  0  0
   -8.4915    0.3805    0.6325 C   0  0  0  0  0  0  0  0  0  0  0  0
   -8.6781    1.1051   -0.6985 C   0  0  0  0  0  0  0  0  0  0  0  0
    1.8239   -2.2660   -0.3968 C   0  0  0  0  0  0  0  0  0  0  0  0
    4.6534    1.0085   -0.6764 C   0  0  0  0  0  0  0  0  0  0  0  0
   -0.1639   -1.6972   -0.3267 C   0  0  0  0  0  0  0  0  0  0  0  0
    3.6110    1.9352   -0.6549 C   0  0  0  0  0  0  0  0  0  0  0  0
    5.9468    1.4059   -0.3374 C   0  0  0  0  0  0  0  0  0  0  0  0
   -3.6372    0.3574    0.6896 C   0  0  0  0  0  0  0  0  0  0  0  0
   -1.3460   -0.9746    0.0399 C   0  0  0  0  0  0  0  0  0  0  0  0
   -2.4513    0.7661    1.2781 C   0  0  0  0  0  0  0  0  0  0  0  0
    3.8619    3.2590   -0.2948 C   0  0  0  0  0  0  0  0  0  0  0  0
    6.1979    2.7298    0.0227 C   0  0  0  0  0  0  0  0  0  0  0  0
   -1.2882    0.0823    0.9417 C   0  0  0  0  0  0  0  0  0  0  0  0
   -2.5813   -1.3056   -0.4931 C   0  0  0  0  0  0  0  0  0  0  0  0
    5.1554    3.6564    0.0440 C   0  0  0  0  0  0  0  0  0  0  0  0
    3.6959   -2.8773   -1.2227 H   0  0  0  0  0  0  0  0  0  0  0  0
    2.8225   -3.8407    1.4128 H   0  0  0  0  0  0  0  0  0  0  0  0
    4.1822   -4.3530    0.3986 H   0  0  0  0  0  0  0  0  0  0  0  0
    5.4363   -3.3969    2.1412 H   0  0  0  0  0  0  0  0  0  0  0  0
    4.1218   -2.2915    2.5854 H   0  0  0  0  0  0  0  0  0  0  0  0
    5.6534   -0.8466    1.4369 H   0  0  0  0  0  0  0  0  0  0  0  0
    6.0013   -2.0761    0.1901 H   0  0  0  0  0  0  0  0  0  0  0  0
   -5.9556   -0.5293    0.1942 H   0  0  0  0  0  0  0  0  0  0  0  0
    3.5486   -0.4077   -1.7814 H   0  0  0  0  0  0  0  0  0  0  0  0
    5.2300   -0.8329   -1.6293 H   0  0  0  0  0  0  0  0  0  0  0  0
   -6.1482    2.3663   -0.7909 H   0  0  0  0  0  0  0  0  0  0  0  0
   -5.3382    1.0686   -1.6358 H   0  0  0  0  0  0  0  0  0  0  0  0
   -7.0396    0.1892    2.2242 H   0  0  0  0  0  0  0  0  0  0  0  0
   -7.2159    1.8202    1.6178 H   0  0  0  0  0  0  0  0  0  0  0  0
   -7.4438   -0.1602   -1.9335 H   0  0  0  0  0  0  0  0  0  0  0  0
   -7.6234    1.4835   -2.5429 H   0  0  0  0  0  0  0  0  0  0  0  0
   -9.3294    0.6131    1.2992 H   0  0  0  0  0  0  0  0  0  0  0  0
   -8.5092   -0.7031    0.4634 H   0  0  0  0  0  0  0  0  0  0  0  0
   -8.8082    2.1785   -0.5132 H   0  0  0  0  0  0  0  0  0  0  0  0
   -9.5940    0.7518   -1.1854 H   0  0  0  0  0  0  0  0  0  0  0  0
    2.5980    1.6380   -0.9137 H   0  0  0  0  0  0  0  0  0  0  0  0
    6.7697    0.6964   -0.3555 H   0  0  0  0  0  0  0  0  0  0  0  0
   -2.4236    1.5928    1.9795 H   0  0  0  0  0  0  0  0  0  0  0  0
    3.0505    3.9806   -0.2771 H   0  0  0  0  0  0  0  0  0  0  0  0
    7.2049    3.0398    0.2856 H   0  0  0  0  0  0  0  0  0  0  0  0
   -0.3521    0.3950    1.3969 H   0  0  0  0  0  0  0  0  0  0  0  0
   -2.7123   -2.1166   -1.2033 H   0  0  0  0  0  0  0  0  0  0  0  0
  1 31  1  0  0  0  0
  2 12  1  0  0  0  0
  2 24  1  0  0  0  0
  3  6  1  0  0  0  0
  3 19  1  0  0  0  0
  4  8  1  0  0  0  0
  4 11  1  0  0  0  0
  4 13  1  0  0  0  0
  5 19  2  0  0  0  0
  5 21  1  0  0  0  0
  6 21  2  0  0  0  0
  7 24  2  0  0  0  0
  7 30  1  0  0  0  0
  8  9  1  0  0  0  0
  8 19  1  0  0  0  0
  8 32  1  0  0  0  0
  9 10  1  0  0  0  0
  9 33  1  0  0  0  0
  9 34  1  0  0  0  0
 10 11  1  0  0  0  0
 10 35  1  0  0  0  0
 10 36  1  0  0  0  0
 11 37  1  0  0  0  0
 11 38  1  0  0  0  0
 12 14  1  0  0  0  0
 12 15  1  0  0  0  0
 12 39  1  0  0  0  0
 13 20  1  0  0  0  0
 13 40  1  0  0  0  0
 13 41  1  0  0  0  0
 14 16  1  0  0  0  0
 14 42  1  0  0  0  0
 14 43  1  0  0  0  0
 15 17  1  0  0  0  0
 15 44  1  0  0  0  0
 15 45  1  0  0  0  0
 16 18  1  0  0  0  0
 16 46  1  0  0  0  0
 16 47  1  0  0  0  0
 17 18  1  0  0  0  0
 17 48  1  0  0  0  0
 17 49  1  0  0  0  0
 18 50  1  0  0  0  0
 18 51  1  0  0  0  0
 20 22  2  0  0  0  0
 20 23  1  0  0  0  0
 21 25  1  0  0  0  0
 22 27  1  0  0  0  0
 22 52  1  0  0  0  0
 23 28  2  0  0  0  0
 23 53  1  0  0  0  0
 24 26  1  0  0  0  0
 25 29  1  0  0  0  0
 25 30  2  0  0  0  0
 26 29  2  0  0  0  0
 26 54  1  0  0  0  0
 27 31  2  0  0  0  0
 27 55  1  0  0  0  0
 28 31  1  0  0  0  0
 28 56  1  0  0  0  0
 29 57  1  0  0  0  0
 30 58  1  0  0  0  0
M  END
> <PUBCHEM_COMPOUND_CID>
45783581

> <PUBCHEM_CONFORMER_RMSD>
1.2

> <PUBCHEM_CONFORMER_DIVERSEORDER>
1
13
37
23
30
62
7
65
67
53
39
57
28
33
6
68
69
8
3
19
26
59
34
40
5
18
48
55
58
20
32
64
72
2
4
63
54
29
43
71
25
51
44
35
42
27
10
22
17
16
24
56
36
61
70
41
46
52
45
21
47
66
50
14
31
11
60
9
15
49
12
38

> <PUBCHEM_MMFF94_PARTIAL_CHARGES>
31
1 -0.19
11 0.27
12 0.28
13 0.41
19 0.3
2 -0.36
20 -0.14
21 0.46
22 -0.15
23 -0.15
24 0.39
25 0.05
26 -0.15
27 -0.15
28 -0.15
29 -0.15
3 -0.02
30 0.16
31 0.19
4 -0.81
5 -0.57
52 0.15
53 0.15
54 0.15
55 0.15
56 0.15
57 0.15
58 0.15
6 -0.41
7 -0.62
8 0.45

> <PUBCHEM_EFFECTIVE_ROTOR_COUNT>
8.2

> <PUBCHEM_PHARMACOPHORE_FEATURES>
7
1 4 cation
3 5 6 21 cation
5 3 5 6 19 21 rings
5 4 8 9 10 11 rings
6 12 14 15 16 17 18 rings
6 20 22 23 27 28 31 rings
6 7 24 25 26 29 30 rings

> <PUBCHEM_HEAVY_ATOM_COUNT>
31

> <PUBCHEM_ATOM_DEF_STEREO_COUNT>
1

> <PUBCHEM_ATOM_UDEF_STEREO_COUNT>
0

> <PUBCHEM_BOND_DEF_STEREO_COUNT>
0

> <PUBCHEM_BOND_UDEF_STEREO_COUNT>
0

> <PUBCHEM_ISOTOPIC_ATOM_COUNT>
0

> <PUBCHEM_COMPONENT_COUNT>
1

> <PUBCHEM_CACTVS_TAUTO_COUNT>
1

> <PUBCHEM_CONFORMER_ID>
02BA9A1D00000001

> <PUBCHEM_MMFF94_ENERGY>
60.5495

> <PUBCHEM_FEATURE_SELFOVERLAP>
35.525

> <PUBCHEM_SHAPE_FINGERPRINT>
10162869 55 18339067229750358567
10411042 1 17977668603036602766
10638233 991 18342461413813603897
10673678 19 18342463659480009055
10906281 52 17775014453777357479
11135609 127 18411129213429239085
11374522 174 17899149474913696932
11386260 185 18200319819023502726
11505856 67 17250926987668310790
11966995 178 18340500997054536381
12166972 35 18128538155012209114
12522641 24 17604703357360060931
12838862 33 18341886429446566040
12925494 130 18336266859306334234
13617811 41 16271929294575365241
13878862 14 18187914067565221886
14117953 113 18341902913705238628
14142895 15 18341049701392552223
14251764 75 18267308810396879140
14429380 56 18409722946609967845
14767858 380 17846778495147360473
15082195 135 18059864926072712894
15183329 4 18131914862669118345
16728300 4 10809603948886549681
18335252 114 18412548674493103886
19053607 189 17839174457709740000
20157964 124 18410014320858560782
20511986 3 18059007419072980652
20715895 44 18342180007609006968
21033648 29 17022619779801257798
21049683 118 17821723974892937386
21344244 181 11959727179258138157
21344244 78 18119232979880494602
21716022 299 14475017125152231758
21814621 53 17603591777564759611
21859007 373 17168698619067932423
21987483 16 18186525436536893563
22122407 14 18337121063655654785
23522609 53 17274001076953814617
23569914 2 17244941018565016717
23729417 116 16831517778446865951
23845131 108 18260553372233033658
3044373 193 17676218965622608517
3472631 163 18201727275179131502
34797466 226 17988091006319171959
3534868 343 17701828691119046770
397830 11 18041573524296042675
4112364 45 18336535097732168768
4258327 124 18272092725486332399
5109719 28 18339654377612400555
54039377 194 8646500626387492104
57634706 306 18260822705500072319
5951187 136 18201452397715279900
6898599 12 18057884834749002791
9849439 229 18198333143293602328

> <PUBCHEM_SHAPE_MULTIPOLES>
599.03
23.42
4.54
1.27
44.01
2.23
-0.06
16.27
-0.14
-12.98
-0.15
0.9
-0.34
-0.75

> <PUBCHEM_SHAPE_SELFOVERLAP>
1295.664

> <PUBCHEM_SHAPE_VOLUME>
330.2

> <PUBCHEM_COORDINATE_TYPE>
2
5
10

$$$$
