9421722
  -OEChem-12032416153D

 56 59  0     1  0  0  0  0  0999 V2000
   -3.3725   -1.3375    0.4754 S   0  0  0  0  0  0  0  0  0  0  0  0
   -3.5471   -1.4931    1.9032 O   0  0  0  0  0  0  0  0  0  0  0  0
   -2.8203   -2.3956   -0.3424 O   0  0  0  0  0  0  0  0  0  0  0  0
    2.0707    0.9428    1.9811 O   0  0  0  0  0  0  0  0  0  0  0  0
   -2.4956    0.1019    0.1807 N   0  0  2  0  0  0  0  0  0  0  0  0
    0.4281    1.2903    0.3595 N   0  0  0  0  0  0  0  0  0  0  0  0
   -1.8198    2.4009    0.8820 C   0  0  1  0  0  0  0  0  0  0  0  0
   -1.3406    1.6336   -1.4013 C   0  0  2  0  0  0  0  0  0  0  0  0
   -1.7813    2.8393   -0.5759 C   0  0  0  0  0  0  0  0  0  0  0  0
   -2.8216    1.2503    1.0738 C   0  0  0  0  0  0  0  0  0  0  0  0
   -2.3741    0.5022   -1.2531 C   0  0  0  0  0  0  0  0  0  0  0  0
   -0.4014    2.0222    1.3263 C   0  0  0  0  0  0  0  0  0  0  0  0
    0.0337    1.1529   -0.9740 C   0  0  0  0  0  0  0  0  0  0  0  0
    3.8932   -0.3514    0.2683 C   0  0  0  0  0  0  0  0  0  0  0  0
    2.5649    0.1671   -0.1950 C   0  0  0  0  0  0  0  0  0  0  0  0
    1.6764    0.8272    0.8195 C   0  0  0  0  0  0  0  0  0  0  0  0
    0.8591    0.5791   -1.8644 C   0  0  0  0  0  0  0  0  0  0  0  0
    5.0418    0.3725   -0.4488 C   0  0  0  0  0  0  0  0  0  0  0  0
    3.9907   -1.8692    0.0581 C   0  0  0  0  0  0  0  0  0  0  0  0
    2.1424    0.0787   -1.4628 C   0  0  0  0  0  0  0  0  0  0  0  0
    6.4044   -0.1739   -0.0270 C   0  0  0  0  0  0  0  0  0  0  0  0
    5.3557   -2.4111    0.4782 C   0  0  0  0  0  0  0  0  0  0  0  0
   -4.9356   -0.8663   -0.2197 C   0  0  0  0  0  0  0  0  0  0  0  0
    6.4929   -1.6829   -0.2307 C   0  0  0  0  0  0  0  0  0  0  0  0
   -5.9551   -1.9868   -0.0993 C   0  0  0  0  0  0  0  0  0  0  0  0
   -7.2888   -1.5931   -0.7116 C   0  0  0  0  0  0  0  0  0  0  0  0
   -2.1596    3.2379    1.5049 H   0  0  0  0  0  0  0  0  0  0  0  0
   -1.3116    1.9371   -2.4562 H   0  0  0  0  0  0  0  0  0  0  0  0
   -1.0869    3.6783   -0.7094 H   0  0  0  0  0  0  0  0  0  0  0  0
   -2.7702    3.1868   -0.8989 H   0  0  0  0  0  0  0  0  0  0  0  0
   -2.7939    0.9295    2.1205 H   0  0  0  0  0  0  0  0  0  0  0  0
   -3.8311    1.6153    0.8556 H   0  0  0  0  0  0  0  0  0  0  0  0
   -3.3365    0.8641   -1.6295 H   0  0  0  0  0  0  0  0  0  0  0  0
   -2.0688   -0.3597   -1.8567 H   0  0  0  0  0  0  0  0  0  0  0  0
    0.1524    2.9443    1.5506 H   0  0  0  0  0  0  0  0  0  0  0  0
   -0.4298    1.4533    2.2642 H   0  0  0  0  0  0  0  0  0  0  0  0
    4.0222   -0.1699    1.3426 H   0  0  0  0  0  0  0  0  0  0  0  0
    0.5751    0.4532   -2.9039 H   0  0  0  0  0  0  0  0  0  0  0  0
    5.0035    1.4471   -0.2300 H   0  0  0  0  0  0  0  0  0  0  0  0
    4.9524    0.2699   -1.5378 H   0  0  0  0  0  0  0  0  0  0  0  0
    3.8258   -2.1319   -0.9947 H   0  0  0  0  0  0  0  0  0  0  0  0
    3.2095   -2.3794    0.6355 H   0  0  0  0  0  0  0  0  0  0  0  0
    2.7465   -0.3839   -2.2363 H   0  0  0  0  0  0  0  0  0  0  0  0
    6.5815    0.0634    1.0293 H   0  0  0  0  0  0  0  0  0  0  0  0
    7.1944    0.3226   -0.6018 H   0  0  0  0  0  0  0  0  0  0  0  0
    5.4102   -3.4832    0.2575 H   0  0  0  0  0  0  0  0  0  0  0  0
    5.4727   -2.3028    1.5635 H   0  0  0  0  0  0  0  0  0  0  0  0
    6.4585   -1.9091   -1.3036 H   0  0  0  0  0  0  0  0  0  0  0  0
    7.4555   -2.0499    0.1426 H   0  0  0  0  0  0  0  0  0  0  0  0
   -4.7927   -0.6409   -1.2787 H   0  0  0  0  0  0  0  0  0  0  0  0
   -5.2970    0.0223    0.3036 H   0  0  0  0  0  0  0  0  0  0  0  0
   -5.5841   -2.8906   -0.5968 H   0  0  0  0  0  0  0  0  0  0  0  0
   -6.1054   -2.2473    0.9550 H   0  0  0  0  0  0  0  0  0  0  0  0
   -8.0081   -2.4121   -0.6124 H   0  0  0  0  0  0  0  0  0  0  0  0
   -7.7056   -0.7129   -0.2116 H   0  0  0  0  0  0  0  0  0  0  0  0
   -7.1798   -1.3644   -1.7766 H   0  0  0  0  0  0  0  0  0  0  0  0
  1  2  2  0  0  0  0
  1  3  2  0  0  0  0
  1  5  1  0  0  0  0
  1 23  1  0  0  0  0
  4 16  2  0  0  0  0
  5 10  1  0  0  0  0
  5 11  1  0  0  0  0
  6 12  1  0  0  0  0
  6 13  1  0  0  0  0
  6 16  1  0  0  0  0
  7  9  1  0  0  0  0
  7 10  1  0  0  0  0
  7 12  1  0  0  0  0
  7 27  1  0  0  0  0
  8  9  1  0  0  0  0
  8 11  1  0  0  0  0
  8 13  1  0  0  0  0
  8 28  1  0  0  0  0
  9 29  1  0  0  0  0
  9 30  1  0  0  0  0
 10 31  1  0  0  0  0
 10 32  1  0  0  0  0
 11 33  1  0  0  0  0
 11 34  1  0  0  0  0
 12 35  1  0  0  0  0
 12 36  1  0  0  0  0
 13 17  2  0  0  0  0
 14 15  1  0  0  0  0
 14 18  1  0  0  0  0
 14 19  1  0  0  0  0
 14 37  1  0  0  0  0
 15 16  1  0  0  0  0
 15 20  2  0  0  0  0
 17 20  1  0  0  0  0
 17 38  1  0  0  0  0
 18 21  1  0  0  0  0
 18 39  1  0  0  0  0
 18 40  1  0  0  0  0
 19 22  1  0  0  0  0
 19 41  1  0  0  0  0
 19 42  1  0  0  0  0
 20 43  1  0  0  0  0
 21 24  1  0  0  0  0
 21 44  1  0  0  0  0
 21 45  1  0  0  0  0
 22 24  1  0  0  0  0
 22 46  1  0  0  0  0
 22 47  1  0  0  0  0
 23 25  1  0  0  0  0
 23 50  1  0  0  0  0
 23 51  1  0  0  0  0
 24 48  1  0  0  0  0
 24 49  1  0  0  0  0
 25 26  1  0  0  0  0
 25 52  1  0  0  0  0
 25 53  1  0  0  0  0
 26 54  1  0  0  0  0
 26 55  1  0  0  0  0
 26 56  1  0  0  0  0
M  END
> <PUBCHEM_COMPOUND_CID>
9421722

> <PUBCHEM_CONFORMER_RMSD>
0.8

> <PUBCHEM_CONFORMER_DIVERSEORDER>
1
16
29
12
24
30
19
23
14
7
18
15
9
6
11
8
20
3
4
13
17
27
10
25
28
21
5
26
22
2

> <PUBCHEM_MMFF94_PARTIAL_CHARGES>
19
1 1.33
10 0.36
11 0.36
12 0.3
13 -0.03
14 0.14
15 -0.12
16 0.62
17 -0.15
2 -0.65
20 -0.15
23 0.11
3 -0.65
38 0.15
4 -0.57
43 0.15
5 -0.85
6 -0.47
8 0.14

> <PUBCHEM_EFFECTIVE_ROTOR_COUNT>
6.2

> <PUBCHEM_PHARMACOPHORE_FEATURES>
8
1 2 acceptor
1 26 hydrophobe
1 3 acceptor
1 4 acceptor
6 14 18 19 21 22 24 rings
6 5 7 8 9 10 11 rings
6 6 13 15 16 17 20 rings
6 6 7 8 9 12 13 rings

> <PUBCHEM_HEAVY_ATOM_COUNT>
26

> <PUBCHEM_ATOM_DEF_STEREO_COUNT>
2

> <PUBCHEM_ATOM_UDEF_STEREO_COUNT>
0

> <PUBCHEM_BOND_DEF_STEREO_COUNT>
0

> <PUBCHEM_BOND_UDEF_STEREO_COUNT>
0

> <PUBCHEM_ISOTOPIC_ATOM_COUNT>
0

> <PUBCHEM_COMPONENT_COUNT>
1

> <PUBCHEM_CACTVS_TAUTO_COUNT>
1

> <PUBCHEM_CONFORMER_ID>
008FC39A00000001

> <PUBCHEM_MMFF94_ENERGY>
40.2319

> <PUBCHEM_FEATURE_SELFOVERLAP>
42.198

> <PUBCHEM_SHAPE_FINGERPRINT>
11115154 58 17240195535401492813
11552529 35 18341610395807745274
12166972 35 18260547874668814439
12633257 1 17203333350684714759
12760667 363 18410014334287106555
13103583 49 17703523167544730931
13402501 40 18410575097559381311
13544653 18 18409736183134788192
13583140 156 18200301131610526860
13631057 29 18409729535037305354
13911987 19 14346091793398504894
14068700 675 18408602578215015213
14955137 171 16630254662511311280
15183329 4 16732691758408266991
15188451 53 18333726906216494942
15209294 21 13398625027072789044
15238133 3 12751238155273806722
15301273 46 16558763298974619237
17349148 13 15574723469786770188
17492 54 14996277020425507513
19784866 240 18186805794383457639
20775530 9 18118398673128712787
21033648 29 15338856239543283795
21304304 249 18059575832198409639
21637258 2 18408318891103137603
21756936 100 11312049933304555245
23402539 116 16081378389221691044
23559900 14 18409157827113213688
3004659 81 17748821955813742863
3009799 131 15574432150454743596
329604 57 18411139134808681506
339767 52 17967814976409805266
4325135 7 18334297600312358484
437815 12 18334855056807448559
463206 1 18337951315621782699
465052 167 17989488545621953182
5104073 3 18130498631831474488
5718773 13 18271521000894003535
5924683 9 18336268946428526020
59755656 520 18118118066178351557
7495541 125 18272651247402337880
7970288 3 18116162245087421635
9981440 41 16913963678538904868

> <PUBCHEM_SHAPE_MULTIPOLES>
511.35
14.86
2.78
1.48
2.85
0
0.07
-14.29
-0.63
-1.88
0.33
-0.4
0.5
-0.25

> <PUBCHEM_SHAPE_SELFOVERLAP>
1065.619

> <PUBCHEM_SHAPE_VOLUME>
290.8

> <PUBCHEM_COORDINATE_TYPE>
2
5
10

$$$$
