40779277
  -OEChem-12032416163D

 55 58  0     1  0  0  0  0  0999 V2000
   -0.9945    3.3942   -0.1027 O   0  0  0  0  0  0  0  0  0  0  0  0
    6.4277    1.4413    0.2359 O   0  0  0  0  0  0  0  0  0  0  0  0
   -3.9452   -0.4646    1.3597 N   0  0  2  0  0  0  0  0  0  0  0  0
    0.1118   -2.6896   -0.5543 N   0  0  0  0  0  0  0  0  0  0  0  0
   -3.2847    3.0121    0.0923 N   0  0  0  0  0  0  0  0  0  0  0  0
    1.4222   -2.4046   -0.6429 N   0  0  0  0  0  0  0  0  0  0  0  0
   -3.0660   -1.3114   -0.9409 C   0  0  2  0  0  0  0  0  0  0  0  0
   -2.1375   -1.7945    0.2074 C   0  0  2  0  0  0  0  0  0  0  0  0
   -3.8746    0.6649    0.3956 C   0  0  2  0  0  0  0  0  0  0  0  0
   -3.1644    0.2283   -0.9038 C   0  0  0  0  0  0  0  0  0  0  0  0
   -4.4752   -1.8634   -0.6360 C   0  0  0  0  0  0  0  0  0  0  0  0
   -2.6069   -1.0881    1.5113 C   0  0  0  0  0  0  0  0  0  0  0  0
   -4.8688   -1.4813    0.8016 C   0  0  0  0  0  0  0  0  0  0  0  0
   -0.6323   -1.6928    0.0054 C   0  0  0  0  0  0  0  0  0  0  0  0
   -3.2317    1.9123    1.0054 C   0  0  0  0  0  0  0  0  0  0  0  0
    0.2528   -0.6860    0.3040 C   0  0  0  0  0  0  0  0  0  0  0  0
    1.5022   -1.1794   -0.1171 C   0  0  0  0  0  0  0  0  0  0  0  0
   -0.3669   -3.9652   -1.0346 C   0  0  0  0  0  0  0  0  0  0  0  0
   -2.1562    3.6690   -0.3916 C   0  0  0  0  0  0  0  0  0  0  0  0
    2.7702   -0.5037   -0.0252 C   0  0  0  0  0  0  0  0  0  0  0  0
   -2.4947    4.7736   -1.3565 C   0  0  0  0  0  0  0  0  0  0  0  0
    2.8254    0.8888   -0.0868 C   0  0  0  0  0  0  0  0  0  0  0  0
    3.9440   -1.2422    0.1242 C   0  0  0  0  0  0  0  0  0  0  0  0
    4.0543    1.5426    0.0009 C   0  0  0  0  0  0  0  0  0  0  0  0
    5.1731   -0.5884    0.2116 C   0  0  0  0  0  0  0  0  0  0  0  0
    5.2282    0.8040    0.1500 C   0  0  0  0  0  0  0  0  0  0  0  0
    7.5876    0.6242    0.3874 C   0  0  0  0  0  0  0  0  0  0  0  0
   -2.7120   -1.6553   -1.9183 H   0  0  0  0  0  0  0  0  0  0  0  0
   -2.3498   -2.8643    0.3543 H   0  0  0  0  0  0  0  0  0  0  0  0
   -4.9059    0.9490    0.1375 H   0  0  0  0  0  0  0  0  0  0  0  0
   -2.1596    0.6573   -0.9871 H   0  0  0  0  0  0  0  0  0  0  0  0
   -3.7374    0.5820   -1.7700 H   0  0  0  0  0  0  0  0  0  0  0  0
   -4.4916   -2.9536   -0.7493 H   0  0  0  0  0  0  0  0  0  0  0  0
   -5.1992   -1.4516   -1.3495 H   0  0  0  0  0  0  0  0  0  0  0  0
   -2.6576   -1.8344    2.3161 H   0  0  0  0  0  0  0  0  0  0  0  0
   -1.8941   -0.3459    1.8814 H   0  0  0  0  0  0  0  0  0  0  0  0
   -5.8978   -1.1015    0.8175 H   0  0  0  0  0  0  0  0  0  0  0  0
   -4.8746   -2.3713    1.4438 H   0  0  0  0  0  0  0  0  0  0  0  0
   -2.1941    1.7348    1.3034 H   0  0  0  0  0  0  0  0  0  0  0  0
   -3.7833    2.2183    1.9016 H   0  0  0  0  0  0  0  0  0  0  0  0
    0.0223    0.2673    0.7580 H   0  0  0  0  0  0  0  0  0  0  0  0
   -4.2016    3.3462   -0.1907 H   0  0  0  0  0  0  0  0  0  0  0  0
   -1.2187   -3.7968   -1.6977 H   0  0  0  0  0  0  0  0  0  0  0  0
    0.4306   -4.4672   -1.5890 H   0  0  0  0  0  0  0  0  0  0  0  0
   -0.6565   -4.5699   -0.1718 H   0  0  0  0  0  0  0  0  0  0  0  0
   -3.2906    5.4032   -0.9485 H   0  0  0  0  0  0  0  0  0  0  0  0
   -1.6116    5.3945   -1.5304 H   0  0  0  0  0  0  0  0  0  0  0  0
   -2.8233    4.3395   -2.3047 H   0  0  0  0  0  0  0  0  0  0  0  0
    1.9294    1.4915   -0.2132 H   0  0  0  0  0  0  0  0  0  0  0  0
    3.9315   -2.3280    0.1837 H   0  0  0  0  0  0  0  0  0  0  0  0
    4.0916    2.6274   -0.0500 H   0  0  0  0  0  0  0  0  0  0  0  0
    6.0450   -1.2228    0.3285 H   0  0  0  0  0  0  0  0  0  0  0  0
    8.4512    1.2953    0.4384 H   0  0  0  0  0  0  0  0  0  0  0  0
    7.7387   -0.0253   -0.4815 H   0  0  0  0  0  0  0  0  0  0  0  0
    7.5639    0.0621    1.3272 H   0  0  0  0  0  0  0  0  0  0  0  0
  1 19  2  0  0  0  0
  2 26  1  0  0  0  0
  2 27  1  0  0  0  0
  3  9  1  0  0  0  0
  3 12  1  0  0  0  0
  3 13  1  0  0  0  0
  4  6  1  0  0  0  0
  4 14  1  0  0  0  0
  4 18  1  0  0  0  0
  5 15  1  0  0  0  0
  5 19  1  0  0  0  0
  5 42  1  0  0  0  0
  6 17  2  0  0  0  0
  7  8  1  0  0  0  0
  7 10  1  0  0  0  0
  7 11  1  0  0  0  0
  7 28  1  0  0  0  0
  8 12  1  0  0  0  0
  8 14  1  0  0  0  0
  8 29  1  0  0  0  0
  9 10  1  0  0  0  0
  9 15  1  0  0  0  0
  9 30  1  0  0  0  0
 10 31  1  0  0  0  0
 10 32  1  0  0  0  0
 11 13  1  0  0  0  0
 11 33  1  0  0  0  0
 11 34  1  0  0  0  0
 12 35  1  0  0  0  0
 12 36  1  0  0  0  0
 13 37  1  0  0  0  0
 13 38  1  0  0  0  0
 14 16  2  0  0  0  0
 15 39  1  0  0  0  0
 15 40  1  0  0  0  0
 16 17  1  0  0  0  0
 16 41  1  0  0  0  0
 17 20  1  0  0  0  0
 18 43  1  0  0  0  0
 18 44  1  0  0  0  0
 18 45  1  0  0  0  0
 19 21  1  0  0  0  0
 20 22  2  0  0  0  0
 20 23  1  0  0  0  0
 21 46  1  0  0  0  0
 21 47  1  0  0  0  0
 21 48  1  0  0  0  0
 22 24  1  0  0  0  0
 22 49  1  0  0  0  0
 23 25  2  0  0  0  0
 23 50  1  0  0  0  0
 24 26  2  0  0  0  0
 24 51  1  0  0  0  0
 25 26  1  0  0  0  0
 25 52  1  0  0  0  0
 27 53  1  0  0  0  0
 27 54  1  0  0  0  0
 27 55  1  0  0  0  0
M  END
> <PUBCHEM_COMPOUND_CID>
40779277

> <PUBCHEM_CONFORMER_RMSD>
0.8

> <PUBCHEM_CONFORMER_DIVERSEORDER>
2
13
25
17
21
15
27
29
7
22
20
8
16
9
24
26
11
14
19
5
18
6
3
10
23
4
28
12
1

> <PUBCHEM_MMFF94_PARTIAL_CHARGES>
30
1 -0.57
12 0.27
13 0.27
14 -0.33
15 0.3
16 -0.15
17 0.23
18 0.26
19 0.57
2 -0.36
20 0.05
21 0.06
22 -0.15
23 -0.15
24 -0.15
25 -0.15
26 0.08
27 0.28
3 -0.81
4 0.31
41 0.15
42 0.37
49 0.15
5 -0.73
50 0.15
51 0.15
52 0.15
6 -0.71
8 0.18
9 0.27

> <PUBCHEM_EFFECTIVE_ROTOR_COUNT>
7.2

> <PUBCHEM_PHARMACOPHORE_FEATURES>
8
1 1 acceptor
1 2 acceptor
1 3 cation
1 5 donor
1 6 acceptor
5 4 6 14 16 17 rings
6 20 22 23 24 25 26 rings
8 3 7 8 9 10 11 12 13 rings

> <PUBCHEM_HEAVY_ATOM_COUNT>
27

> <PUBCHEM_ATOM_DEF_STEREO_COUNT>
3

> <PUBCHEM_ATOM_UDEF_STEREO_COUNT>
0

> <PUBCHEM_BOND_DEF_STEREO_COUNT>
0

> <PUBCHEM_BOND_UDEF_STEREO_COUNT>
0

> <PUBCHEM_ISOTOPIC_ATOM_COUNT>
0

> <PUBCHEM_COMPONENT_COUNT>
1

> <PUBCHEM_CACTVS_TAUTO_COUNT>
2

> <PUBCHEM_CONFORMER_ID>
026E3E0D00000002

> <PUBCHEM_MMFF94_ENERGY>
73.0752

> <PUBCHEM_FEATURE_SELFOVERLAP>
40.597

> <PUBCHEM_SHAPE_FINGERPRINT>
100830 39 18410008858499079760
10087517 78 18410852192185940508
10670039 82 18336563667770290988
10871710 139 18341609326577023759
11595378 159 18187912985265261152
12107183 9 17756695348401390442
12166972 35 17677892520814174799
12596602 18 17313099787229975384
12788726 201 18261100894499760928
13402501 40 18413389834509865769
13773456 30 17903906769405361421
14251764 75 17766846022401155921
14466204 15 18410569549193981376
15183329 4 18342740732948840534
15419008 145 18262223475167296384
15961568 22 18410296925464639021
19246450 95 17903893606111068290
19611394 137 17899708039842412147
20771845 165 18272664428620156966
21236236 1 18412261727327267432
21279426 13 18199192798351877974
21859007 373 18339641119533485414
22113638 7 18122627420850362957
22956985 138 16959871996199141875
23559900 14 17631737188203933474
24771293 8 18342751693948012465
25019877 29 17488757803628398271
3117164 225 17756134597323674394
469060 322 18337974362599942201
474144 1 17606425355693759652
5104073 3 18261114019798725706
6036956 94 18260553363353286821
6608658 132 18339355378726225134
7399639 24 18339658737184138283
9981440 41 18408325466978292955

> <PUBCHEM_SHAPE_MULTIPOLES>
523.98
13.35
4.74
1.05
23.92
4.62
0.06
3.58
2.39
-5.29
-2.04
-1.13
-0.03
0.68

> <PUBCHEM_SHAPE_SELFOVERLAP>
1122.671

> <PUBCHEM_SHAPE_VOLUME>
288.6

> <PUBCHEM_COORDINATE_TYPE>
2
5
10

$$$$
