75536752
  -OEChem-12032416323D

 49 51  0     1  0  0  0  0  0999 V2000
    8.9576    0.2792    0.6559 F   0  0  0  0  0  0  0  0  0  0  0  0
   -0.7423    0.9700   -0.1650 O   0  0  0  0  0  0  0  0  0  0  0  0
    0.4157   -2.3947    0.3291 O   0  0  0  0  0  0  0  0  0  0  0  0
   -8.0397    1.0930   -0.3349 O   0  0  0  0  0  0  0  0  0  0  0  0
   -4.1135   -1.9041   -0.0432 O   0  0  0  0  0  0  0  0  0  0  0  0
    2.6824   -0.2344    0.0631 N   0  0  0  0  0  0  0  0  0  0  0  0
   -3.2920    0.0538    0.8263 N   0  0  0  0  0  0  0  0  0  0  0  0
   -5.4418   -0.0057   -0.1549 N   0  0  0  0  0  0  0  0  0  0  0  0
    1.2967   -0.2299   -0.3765 C   0  0  1  0  0  0  0  0  0  0  0  0
    0.3638   -0.9974    0.5420 C   0  0  1  0  0  0  0  0  0  0  0  0
   -0.9849   -0.4123    0.1458 C   0  0  1  0  0  0  0  0  0  0  0  0
    0.6720    1.1555   -0.3502 C   0  0  0  0  0  0  0  0  0  0  0  0
   -2.0300   -0.5161    1.2422 C   0  0  0  0  0  0  0  0  0  0  0  0
    3.5726    0.2125   -1.0016 C   0  0  0  0  0  0  0  0  0  0  0  0
   -4.2726   -0.7022    0.1949 C   0  0  0  0  0  0  0  0  0  0  0  0
   -6.5252   -0.7232   -0.8307 C   0  0  0  0  0  0  0  0  0  0  0  0
   -5.6515    1.4452   -0.0471 C   0  0  0  0  0  0  0  0  0  0  0  0
    5.0115    0.2302   -0.5589 C   0  0  0  0  0  0  0  0  0  0  0  0
   -7.8791   -0.3250   -0.2646 C   0  0  0  0  0  0  0  0  0  0  0  0
   -7.0556    1.7540    0.4615 C   0  0  0  0  0  0  0  0  0  0  0  0
    5.5493    1.3806    0.0182 C   0  0  0  0  0  0  0  0  0  0  0  0
    5.8069   -0.9035   -0.7256 C   0  0  0  0  0  0  0  0  0  0  0  0
    6.8822    1.3975    0.4284 C   0  0  0  0  0  0  0  0  0  0  0  0
    7.1399   -0.8867   -0.3155 C   0  0  0  0  0  0  0  0  0  0  0  0
    7.6776    0.2637    0.2615 C   0  0  0  0  0  0  0  0  0  0  0  0
    1.2164   -0.6651   -1.3828 H   0  0  0  0  0  0  0  0  0  0  0  0
    0.5900   -0.7917    1.5957 H   0  0  0  0  0  0  0  0  0  0  0  0
   -1.3627   -0.8907   -0.7674 H   0  0  0  0  0  0  0  0  0  0  0  0
    0.8457    1.7152   -1.2742 H   0  0  0  0  0  0  0  0  0  0  0  0
    1.0312    1.7587    0.4917 H   0  0  0  0  0  0  0  0  0  0  0  0
   -1.7177    0.0525    2.1252 H   0  0  0  0  0  0  0  0  0  0  0  0
   -2.1806   -1.5595    1.5388 H   0  0  0  0  0  0  0  0  0  0  0  0
    2.9420   -1.1830    0.3349 H   0  0  0  0  0  0  0  0  0  0  0  0
    3.3001    1.2209   -1.3381 H   0  0  0  0  0  0  0  0  0  0  0  0
    3.4807   -0.4382   -1.8815 H   0  0  0  0  0  0  0  0  0  0  0  0
   -3.4131    1.0401    1.0052 H   0  0  0  0  0  0  0  0  0  0  0  0
    0.2157   -2.5691   -0.6062 H   0  0  0  0  0  0  0  0  0  0  0  0
   -6.3887   -1.8063   -0.7576 H   0  0  0  0  0  0  0  0  0  0  0  0
   -6.4634   -0.4457   -1.8898 H   0  0  0  0  0  0  0  0  0  0  0  0
   -5.5281    1.8426   -1.0617 H   0  0  0  0  0  0  0  0  0  0  0  0
   -4.9274    1.9439    0.5945 H   0  0  0  0  0  0  0  0  0  0  0  0
   -8.6817   -0.7842   -0.8501 H   0  0  0  0  0  0  0  0  0  0  0  0
   -7.9920   -0.6534    0.7755 H   0  0  0  0  0  0  0  0  0  0  0  0
   -7.1736    1.4490    1.5082 H   0  0  0  0  0  0  0  0  0  0  0  0
   -7.2455    2.8305    0.4052 H   0  0  0  0  0  0  0  0  0  0  0  0
    4.9396    2.2698    0.1553 H   0  0  0  0  0  0  0  0  0  0  0  0
    5.3992   -1.8065   -1.1722 H   0  0  0  0  0  0  0  0  0  0  0  0
    7.3011    2.2927    0.8783 H   0  0  0  0  0  0  0  0  0  0  0  0
    7.7594   -1.7693   -0.4447 H   0  0  0  0  0  0  0  0  0  0  0  0
  1 25  1  0  0  0  0
  2 11  1  0  0  0  0
  2 12  1  0  0  0  0
  3 10  1  0  0  0  0
  3 37  1  0  0  0  0
  4 19  1  0  0  0  0
  4 20  1  0  0  0  0
  5 15  2  0  0  0  0
  6  9  1  0  0  0  0
  6 14  1  0  0  0  0
  6 33  1  0  0  0  0
  7 13  1  0  0  0  0
  7 15  1  0  0  0  0
  7 36  1  0  0  0  0
  8 15  1  0  0  0  0
  8 16  1  0  0  0  0
  8 17  1  0  0  0  0
  9 10  1  0  0  0  0
  9 12  1  0  0  0  0
  9 26  1  0  0  0  0
 10 11  1  0  0  0  0
 10 27  1  0  0  0  0
 11 13  1  0  0  0  0
 11 28  1  0  0  0  0
 12 29  1  0  0  0  0
 12 30  1  0  0  0  0
 13 31  1  0  0  0  0
 13 32  1  0  0  0  0
 14 18  1  0  0  0  0
 14 34  1  0  0  0  0
 14 35  1  0  0  0  0
 16 19  1  0  0  0  0
 16 38  1  0  0  0  0
 16 39  1  0  0  0  0
 17 20  1  0  0  0  0
 17 40  1  0  0  0  0
 17 41  1  0  0  0  0
 18 21  2  0  0  0  0
 18 22  1  0  0  0  0
 19 42  1  0  0  0  0
 19 43  1  0  0  0  0
 20 44  1  0  0  0  0
 20 45  1  0  0  0  0
 21 23  1  0  0  0  0
 21 46  1  0  0  0  0
 22 24  2  0  0  0  0
 22 47  1  0  0  0  0
 23 25  2  0  0  0  0
 23 48  1  0  0  0  0
 24 25  1  0  0  0  0
 24 49  1  0  0  0  0
M  END
> <PUBCHEM_COMPOUND_CID>
75536752

> <PUBCHEM_CONFORMER_RMSD>
1

> <PUBCHEM_CONFORMER_DIVERSEORDER>
1
94
88
28
90
37
22
91
80
83
93
61
51
50
42
26
4
34
87
77
62
68
69
41
43
67
49
81
8
24
70
11
73
72
56
58
40
53
7
89
16
19
55
10
82
71
92
18
33
14
3
64
52
45
78
74
75
13
79
38
95
35
25
31
65
47
66
9
85
44
20
30
36
59
60
32
27
46
21
15
86
57
23
39
29
2
54
5
6
63
12
84
48
17
76

> <PUBCHEM_MMFF94_PARTIAL_CHARGES>
32
1 -0.19
10 0.28
11 0.28
12 0.28
13 0.3
14 0.41
15 0.69
16 0.3
17 0.3
18 -0.14
19 0.28
2 -0.56
20 0.28
21 -0.15
22 -0.15
23 -0.15
24 -0.15
25 0.19
3 -0.68
33 0.36
36 0.37
37 0.4
4 -0.56
46 0.15
47 0.15
48 0.15
49 0.15
5 -0.57
6 -0.9
7 -0.73
8 -0.66
9 0.27

> <PUBCHEM_EFFECTIVE_ROTOR_COUNT>
9.2

> <PUBCHEM_PHARMACOPHORE_FEATURES>
11
1 2 acceptor
1 3 acceptor
1 3 donor
1 4 acceptor
1 5 acceptor
1 6 cation
1 6 donor
1 7 donor
5 2 9 10 11 12 rings
6 18 21 22 23 24 25 rings
6 4 8 16 17 19 20 rings

> <PUBCHEM_HEAVY_ATOM_COUNT>
25

> <PUBCHEM_ATOM_DEF_STEREO_COUNT>
3

> <PUBCHEM_ATOM_UDEF_STEREO_COUNT>
0

> <PUBCHEM_BOND_DEF_STEREO_COUNT>
0

> <PUBCHEM_BOND_UDEF_STEREO_COUNT>
0

> <PUBCHEM_ISOTOPIC_ATOM_COUNT>
0

> <PUBCHEM_COMPONENT_COUNT>
1

> <PUBCHEM_CACTVS_TAUTO_COUNT>
2

> <PUBCHEM_CONFORMER_ID>
0480997000000001

> <PUBCHEM_MMFF94_ENERGY>
50.2523

> <PUBCHEM_FEATURE_SELFOVERLAP>
55.822

> <PUBCHEM_SHAPE_FINGERPRINT>
10 15 13262401063966714899
10050765 1 18050568443447739588
11135609 99 10951465134596024533
11135926 11 18260823792016483255
11315181 36 17275388712051552291
11524674 6 14706932856317562777
11719270 70 17775567516241323294
12082328 90 18202563965379383535
125118 31 18335706065859765452
13533116 47 17531520989445710466
13673619 4 12175620664001808059
13885169 127 18342176648580695085
13914758 101 18334859394117964144
13968360 50 17417817210061266542
14123256 10 18410855460133436559
14251764 18 17385721400720850611
14251764 46 18410292514469707791
14344974 52 18343295990927012669
15183329 4 16660361484800757324
15716309 27 10737287956958051849
15849732 13 18060137652137354789
18335252 98 10519991465645195860
18681886 176 18060129973342302307
20157964 124 18060143124674762958
20554085 129 18131058343206215426
21095086 128 11314027980503459177
21150785 3 17346880048578704501
21403212 168 18333729114025091506
22224240 67 18333449841543488802
23559900 14 18130219471531224721
246663 6 9655575218621741105
249057 3 15913321424912213172
2835820 82 16661754468241199618
28498 318 16588019100846871658
3009799 131 18201721760314528945
328311 84 11602817999889689784
335352 9 18259989296891756686
3633792 109 18271813376107048274
4073 2 18114468962783569018
4325135 7 13830132793162085432
4339292 15 17202755030262180263
5385378 56 17385721353244583010
5758199 1 18259985959654896107
59755656 520 16081370791361351851
67123 10 18201718470617324661
99344 41 18412825789820046174

> <PUBCHEM_SHAPE_MULTIPOLES>
468.79
27.73
1.6
0.86
2.51
0.1
-0.03
-6.55
1.07
-0.91
-0.1
0.05
0.05
0.2

> <PUBCHEM_SHAPE_SELFOVERLAP>
974.618

> <PUBCHEM_SHAPE_VOLUME>
267.8

> <PUBCHEM_COORDINATE_TYPE>
2
5
10

$$$$
