25338208
  -OEChem-12032416193D

 56 59  0     1  0  0  0  0  0999 V2000
    2.3711    0.7550   -1.6378 O   0  0  0  0  0  0  0  0  0  0  0  0
    4.1170    1.5000   -0.3044 O   0  0  0  0  0  0  0  0  0  0  0  0
    2.4905    1.6702    2.0676 O   0  0  0  0  0  0  0  0  0  0  0  0
   -1.4734    2.3394    1.3102 O   0  0  0  0  0  0  0  0  0  0  0  0
    1.8526   -1.3866    0.2024 N   0  0  0  0  0  0  0  0  0  0  0  0
   -0.1997    1.2962   -0.3241 N   0  0  0  0  0  0  0  0  0  0  0  0
   -2.4725    0.9800   -0.2850 N   0  0  0  0  0  0  0  0  0  0  0  0
    2.6316   -0.2015    0.5606 C   0  0  2  0  0  0  0  0  0  0  0  0
    1.7073    0.8809    1.1627 C   0  0  2  0  0  0  0  0  0  0  0  0
    1.0822    1.8146    0.1028 C   0  0  1  0  0  0  0  0  0  0  0  0
    1.9913    2.0354   -1.1239 C   0  0  1  0  0  0  0  0  0  0  0  0
    3.3584    0.3398   -0.6842 C   0  0  1  0  0  0  0  0  0  0  0  0
    3.3533    2.6144   -0.7907 C   0  0  0  0  0  0  0  0  0  0  0  0
    1.5720   -2.1973    1.3956 C   0  0  0  0  0  0  0  0  0  0  0  0
    2.5550   -2.1732   -0.8212 C   0  0  0  0  0  0  0  0  0  0  0  0
    0.7156   -3.4155    1.0462 C   0  0  0  0  0  0  0  0  0  0  0  0
    1.7310   -3.3907   -1.2430 C   0  0  0  0  0  0  0  0  0  0  0  0
    1.3692   -4.2585   -0.0429 C   0  0  0  0  0  0  0  0  0  0  0  0
   -3.8346    1.1241    0.1790 C   0  0  0  0  0  0  0  0  0  0  0  0
   -1.3894    1.6070    0.3253 C   0  0  0  0  0  0  0  0  0  0  0  0
   -4.8246    1.0521   -0.9885 C   0  0  0  0  0  0  0  0  0  0  0  0
   -4.1643    0.0811    1.2521 C   0  0  0  0  0  0  0  0  0  0  0  0
   -4.9530   -0.3598   -1.5601 C   0  0  0  0  0  0  0  0  0  0  0  0
   -4.2939   -1.3293    0.6768 C   0  0  0  0  0  0  0  0  0  0  0  0
   -5.2925   -1.3777   -0.4755 C   0  0  0  0  0  0  0  0  0  0  0  0
    3.4102   -0.4561    1.2945 H   0  0  0  0  0  0  0  0  0  0  0  0
    0.9229    0.4444    1.7888 H   0  0  0  0  0  0  0  0  0  0  0  0
    0.8972    2.7975    0.5553 H   0  0  0  0  0  0  0  0  0  0  0  0
    1.4762    2.6145   -1.8972 H   0  0  0  0  0  0  0  0  0  0  0  0
    4.0840   -0.3412   -1.1363 H   0  0  0  0  0  0  0  0  0  0  0  0
    3.8559    2.9774   -1.6937 H   0  0  0  0  0  0  0  0  0  0  0  0
    3.3288    3.4181   -0.0501 H   0  0  0  0  0  0  0  0  0  0  0  0
    1.0268   -1.6230    2.1514 H   0  0  0  0  0  0  0  0  0  0  0  0
    2.5058   -2.5366    1.8637 H   0  0  0  0  0  0  0  0  0  0  0  0
    3.5398   -2.5052   -0.4665 H   0  0  0  0  0  0  0  0  0  0  0  0
    2.6813   -1.6383   -1.7663 H   0  0  0  0  0  0  0  0  0  0  0  0
   -0.2210    0.6196   -1.0812 H   0  0  0  0  0  0  0  0  0  0  0  0
   -0.2744   -3.0835    0.7080 H   0  0  0  0  0  0  0  0  0  0  0  0
    0.5589   -4.0275    1.9418 H   0  0  0  0  0  0  0  0  0  0  0  0
    2.2932   -3.9864   -1.9714 H   0  0  0  0  0  0  0  0  0  0  0  0
    0.8115   -3.0590   -1.7425 H   0  0  0  0  0  0  0  0  0  0  0  0
    2.2761   -4.7307    0.3541 H   0  0  0  0  0  0  0  0  0  0  0  0
    0.6942   -5.0644   -0.3510 H   0  0  0  0  0  0  0  0  0  0  0  0
    1.8937    2.3106    2.4911 H   0  0  0  0  0  0  0  0  0  0  0  0
   -3.9173    2.1185    0.6352 H   0  0  0  0  0  0  0  0  0  0  0  0
   -4.5229    1.7410   -1.7866 H   0  0  0  0  0  0  0  0  0  0  0  0
   -5.8116    1.3819   -0.6398 H   0  0  0  0  0  0  0  0  0  0  0  0
   -5.1130    0.3531    1.7325 H   0  0  0  0  0  0  0  0  0  0  0  0
   -3.4002    0.0827    2.0386 H   0  0  0  0  0  0  0  0  0  0  0  0
   -2.2819    0.3381   -1.0480 H   0  0  0  0  0  0  0  0  0  0  0  0
   -4.0207   -0.6509   -2.0579 H   0  0  0  0  0  0  0  0  0  0  0  0
   -5.7345   -0.3716   -2.3286 H   0  0  0  0  0  0  0  0  0  0  0  0
   -4.6117   -2.0192    1.4668 H   0  0  0  0  0  0  0  0  0  0  0  0
   -3.3143   -1.6778    0.3276 H   0  0  0  0  0  0  0  0  0  0  0  0
   -6.3007   -1.1782   -0.0919 H   0  0  0  0  0  0  0  0  0  0  0  0
   -5.3095   -2.3849   -0.9071 H   0  0  0  0  0  0  0  0  0  0  0  0
  1 11  1  0  0  0  0
  1 12  1  0  0  0  0
  2 12  1  0  0  0  0
  2 13  1  0  0  0  0
  3  9  1  0  0  0  0
  3 44  1  0  0  0  0
  4 20  2  0  0  0  0
  5  8  1  0  0  0  0
  5 14  1  0  0  0  0
  5 15  1  0  0  0  0
  6 10  1  0  0  0  0
  6 20  1  0  0  0  0
  6 37  1  0  0  0  0
  7 19  1  0  0  0  0
  7 20  1  0  0  0  0
  7 50  1  0  0  0  0
  8  9  1  0  0  0  0
  8 12  1  0  0  0  0
  8 26  1  0  0  0  0
  9 10  1  0  0  0  0
  9 27  1  0  0  0  0
 10 11  1  0  0  0  0
 10 28  1  0  0  0  0
 11 13  1  0  0  0  0
 11 29  1  0  0  0  0
 12 30  1  0  0  0  0
 13 31  1  0  0  0  0
 13 32  1  0  0  0  0
 14 16  1  0  0  0  0
 14 33  1  0  0  0  0
 14 34  1  0  0  0  0
 15 17  1  0  0  0  0
 15 35  1  0  0  0  0
 15 36  1  0  0  0  0
 16 18  1  0  0  0  0
 16 38  1  0  0  0  0
 16 39  1  0  0  0  0
 17 18  1  0  0  0  0
 17 40  1  0  0  0  0
 17 41  1  0  0  0  0
 18 42  1  0  0  0  0
 18 43  1  0  0  0  0
 19 21  1  0  0  0  0
 19 22  1  0  0  0  0
 19 45  1  0  0  0  0
 21 23  1  0  0  0  0
 21 46  1  0  0  0  0
 21 47  1  0  0  0  0
 22 24  1  0  0  0  0
 22 48  1  0  0  0  0
 22 49  1  0  0  0  0
 23 25  1  0  0  0  0
 23 51  1  0  0  0  0
 23 52  1  0  0  0  0
 24 25  1  0  0  0  0
 24 53  1  0  0  0  0
 24 54  1  0  0  0  0
 25 55  1  0  0  0  0
 25 56  1  0  0  0  0
M  END
> <PUBCHEM_COMPOUND_CID>
25338208

> <PUBCHEM_CONFORMER_RMSD>
1

> <PUBCHEM_CONFORMER_DIVERSEORDER>
1
14
39
35
24
28
22
11
29
23
26
3
8
10
36
12
21
34
7
31
37
19
2
6
32
5
13
18
27
20
16
9
30
38
40
17
25
33
15
4

> <PUBCHEM_MMFF94_PARTIAL_CHARGES>
20
1 -0.56
10 0.3
11 0.28
12 0.56
13 0.28
14 0.27
15 0.27
19 0.3
2 -0.56
20 0.69
3 -0.68
37 0.37
4 -0.57
44 0.4
5 -0.81
50 0.37
6 -0.73
7 -0.73
8 0.27
9 0.28

> <PUBCHEM_EFFECTIVE_ROTOR_COUNT>
8.6

> <PUBCHEM_PHARMACOPHORE_FEATURES>
11
1 1 acceptor
1 2 acceptor
1 3 acceptor
1 3 donor
1 4 acceptor
1 5 cation
1 6 donor
1 7 donor
6 19 21 22 23 24 25 rings
6 5 14 15 16 17 18 rings
8 1 2 8 9 10 11 12 13 rings

> <PUBCHEM_HEAVY_ATOM_COUNT>
25

> <PUBCHEM_ATOM_DEF_STEREO_COUNT>
5

> <PUBCHEM_ATOM_UDEF_STEREO_COUNT>
0

> <PUBCHEM_BOND_DEF_STEREO_COUNT>
0

> <PUBCHEM_BOND_UDEF_STEREO_COUNT>
0

> <PUBCHEM_ISOTOPIC_ATOM_COUNT>
0

> <PUBCHEM_COMPONENT_COUNT>
1

> <PUBCHEM_CACTVS_TAUTO_COUNT>
3

> <PUBCHEM_CONFORMER_ID>
0182A16000000001

> <PUBCHEM_MMFF94_ENERGY>
45.3859

> <PUBCHEM_FEATURE_SELFOVERLAP>
55.922

> <PUBCHEM_SHAPE_FINGERPRINT>
10074138 170 17191180603577246616
11069576 57 18269537387159047279
11315621 136 18410015407670429591
11370993 70 18187084009279510885
11421498 54 18130517369888135232
12553582 1 17470457235230935587
12788726 201 17630900309183428505
13150687 139 18044391637001742052
13224815 77 18342459257576348013
13402501 40 17972048195684054643
13533116 47 18271804572051553033
13583140 156 18059558184257125541
14844126 61 16169464388385542306
14863182 85 18411973676681474984
14950920 106 10303249244082510517
15238133 3 11599736107167078216
15537594 2 18201724007189099399
17134984 74 18055326271781966479
17138139 8 17841413037070022367
17492 54 17970089793791948390
17818456 19 17626668194312380153
18681886 176 18189332536592718088
20028762 73 18342455933346001510
20567600 347 18410290341559348970
20645477 70 18334573525658572525
20775530 9 17978795601589474675
21054139 6 18340761654023959605
21285901 2 17823116996438469997
21315764 371 17986943232117328371
21421861 104 18196950880651285801
235170 7 17748820822306231181
23559900 14 18335977554725633357
238 59 18334869311113041762
25222932 49 18057878229527067183
3052486 1 17977093884064863650
3060560 45 18186803604034968004
4280585 95 17829884331103712466
463206 1 18269549598051703863
9709674 26 18262521390655816587

> <PUBCHEM_SHAPE_MULTIPOLES>
476.07
9.64
4.31
1.52
14.9
4.46
0.16
-1.05
-2.25
-4.02
-0.1
-0.11
-0.05
-0.2

> <PUBCHEM_SHAPE_SELFOVERLAP>
993.639

> <PUBCHEM_SHAPE_VOLUME>
264.9

> <PUBCHEM_COORDINATE_TYPE>
2
5
10

$$$$
