45783371
  -OEChem-12032416273D

 53 56  0     1  0  0  0  0  0999 V2000
   -0.8990    2.7822    1.2106 O   0  0  0  0  0  0  0  0  0  0  0  0
    0.2145   -2.0250   -2.2184 O   0  0  0  0  0  0  0  0  0  0  0  0
    1.9914    1.5205   -0.3395 N   0  0  1  0  0  0  0  0  0  0  0  0
   -1.1261    1.1318   -0.2867 N   0  0  0  0  0  0  0  0  0  0  0  0
   -2.1269    2.1690    1.4899 N   0  0  0  0  0  0  0  0  0  0  0  0
   -1.8873   -1.4454   -0.4071 N   0  0  0  0  0  0  0  0  0  0  0  0
   -4.1974   -1.8657   -0.1128 N   0  0  0  0  0  0  0  0  0  0  0  0
    0.9710    2.5877   -0.3511 C   0  0  1  0  0  0  0  0  0  0  0  0
    0.9239    3.0679   -1.8135 C   0  0  0  0  0  0  0  0  0  0  0  0
    1.9928    2.2575   -2.5328 C   0  0  0  0  0  0  0  0  0  0  0  0
    2.9283    1.8326   -1.4190 C   0  0  0  0  0  0  0  0  0  0  0  0
    2.6630    1.3819    0.9464 C   0  0  0  0  0  0  0  0  0  0  0  0
   -0.3757    2.1110    0.1513 C   0  0  0  0  0  0  0  0  0  0  0  0
    3.3098    0.0309    1.0983 C   0  0  0  0  0  0  0  0  0  0  0  0
   -2.1893    1.2061    0.5654 C   0  0  0  0  0  0  0  0  0  0  0  0
    2.5916   -1.0279    1.6539 C   0  0  0  0  0  0  0  0  0  0  0  0
    4.6275   -0.1619    0.6837 C   0  0  0  0  0  0  0  0  0  0  0  0
   -3.2995    0.3035    0.4651 C   0  0  0  0  0  0  0  0  0  0  0  0
    3.1910   -2.2796    1.7949 C   0  0  0  0  0  0  0  0  0  0  0  0
    5.2270   -1.4133    0.8244 C   0  0  0  0  0  0  0  0  0  0  0  0
    4.5088   -2.4722    1.3802 C   0  0  0  0  0  0  0  0  0  0  0  0
   -3.1703   -0.9929   -0.0069 C   0  0  0  0  0  0  0  0  0  0  0  0
   -4.5641    0.7316    0.8536 C   0  0  0  0  0  0  0  0  0  0  0  0
   -1.6570   -2.7616   -0.9052 C   0  0  0  0  0  0  0  0  0  0  0  0
   -5.6455   -0.1373    0.7595 C   0  0  0  0  0  0  0  0  0  0  0  0
   -5.4113   -1.4139    0.2742 C   0  0  0  0  0  0  0  0  0  0  0  0
   -0.1812   -2.9498   -1.2132 C   0  0  0  0  0  0  0  0  0  0  0  0
    1.5899   -2.1678   -2.5452 C   0  0  0  0  0  0  0  0  0  0  0  0
    1.2998    3.4362    0.2657 H   0  0  0  0  0  0  0  0  0  0  0  0
   -0.0518    2.9382   -2.2939 H   0  0  0  0  0  0  0  0  0  0  0  0
    1.1804    4.1334   -1.8589 H   0  0  0  0  0  0  0  0  0  0  0  0
    2.5000    2.8381   -3.3089 H   0  0  0  0  0  0  0  0  0  0  0  0
    1.5377    1.3787   -3.0066 H   0  0  0  0  0  0  0  0  0  0  0  0
    3.6019    2.6586   -1.1580 H   0  0  0  0  0  0  0  0  0  0  0  0
    3.5234    0.9680   -1.7270 H   0  0  0  0  0  0  0  0  0  0  0  0
    1.9373    1.4862    1.7650 H   0  0  0  0  0  0  0  0  0  0  0  0
    3.3968    2.1812    1.1186 H   0  0  0  0  0  0  0  0  0  0  0  0
    1.5626   -0.8925    1.9768 H   0  0  0  0  0  0  0  0  0  0  0  0
    5.2011    0.6553    0.2545 H   0  0  0  0  0  0  0  0  0  0  0  0
    2.6310   -3.1044    2.2256 H   0  0  0  0  0  0  0  0  0  0  0  0
    6.2533   -1.5632    0.5024 H   0  0  0  0  0  0  0  0  0  0  0  0
    4.9755   -3.4468    1.4895 H   0  0  0  0  0  0  0  0  0  0  0  0
   -4.7404    1.7377    1.2260 H   0  0  0  0  0  0  0  0  0  0  0  0
   -1.0960   -0.9614    0.0045 H   0  0  0  0  0  0  0  0  0  0  0  0
   -1.9683   -3.5130   -0.1708 H   0  0  0  0  0  0  0  0  0  0  0  0
   -2.2375   -2.9135   -1.8229 H   0  0  0  0  0  0  0  0  0  0  0  0
   -6.6406    0.1750    1.0547 H   0  0  0  0  0  0  0  0  0  0  0  0
   -6.2213   -2.1297    0.1808 H   0  0  0  0  0  0  0  0  0  0  0  0
    0.4204   -2.7889   -0.3104 H   0  0  0  0  0  0  0  0  0  0  0  0
   -0.0110   -3.9720   -1.5703 H   0  0  0  0  0  0  0  0  0  0  0  0
    1.7908   -3.1707   -2.9339 H   0  0  0  0  0  0  0  0  0  0  0  0
    1.8370   -1.4369   -3.3199 H   0  0  0  0  0  0  0  0  0  0  0  0
    2.2148   -1.9700   -1.6691 H   0  0  0  0  0  0  0  0  0  0  0  0
  1  5  1  0  0  0  0
  1 13  1  0  0  0  0
  2 27  1  0  0  0  0
  2 28  1  0  0  0  0
  3  8  1  0  0  0  0
  3 11  1  0  0  0  0
  3 12  1  0  0  0  0
  4 13  2  0  0  0  0
  4 15  1  0  0  0  0
  5 15  2  0  0  0  0
  6 22  1  0  0  0  0
  6 24  1  0  0  0  0
  6 44  1  0  0  0  0
  7 22  1  0  0  0  0
  7 26  2  0  0  0  0
  8  9  1  0  0  0  0
  8 13  1  0  0  0  0
  8 29  1  0  0  0  0
  9 10  1  0  0  0  0
  9 30  1  0  0  0  0
  9 31  1  0  0  0  0
 10 11  1  0  0  0  0
 10 32  1  0  0  0  0
 10 33  1  0  0  0  0
 11 34  1  0  0  0  0
 11 35  1  0  0  0  0
 12 14  1  0  0  0  0
 12 36  1  0  0  0  0
 12 37  1  0  0  0  0
 14 16  2  0  0  0  0
 14 17  1  0  0  0  0
 15 18  1  0  0  0  0
 16 19  1  0  0  0  0
 16 38  1  0  0  0  0
 17 20  2  0  0  0  0
 17 39  1  0  0  0  0
 18 22  2  0  0  0  0
 18 23  1  0  0  0  0
 19 21  2  0  0  0  0
 19 40  1  0  0  0  0
 20 21  1  0  0  0  0
 20 41  1  0  0  0  0
 21 42  1  0  0  0  0
 23 25  2  0  0  0  0
 23 43  1  0  0  0  0
 24 27  1  0  0  0  0
 24 45  1  0  0  0  0
 24 46  1  0  0  0  0
 25 26  1  0  0  0  0
 25 47  1  0  0  0  0
 26 48  1  0  0  0  0
 27 49  1  0  0  0  0
 27 50  1  0  0  0  0
 28 51  1  0  0  0  0
 28 52  1  0  0  0  0
 28 53  1  0  0  0  0
M  END
> <PUBCHEM_COMPOUND_CID>
45783371

> <PUBCHEM_CONFORMER_RMSD>
1

> <PUBCHEM_CONFORMER_DIVERSEORDER>
1
111
30
106
37
35
96
143
113
52
83
73
45
39
24
117
116
142
41
127
79
144
23
89
44
141
76
71
74
16
84
133
118
66
101
86
55
25
114
99
107
70
64
11
100
115
132
58
126
95
77
109
15
78
80
128
125
137
75
135
21
68
62
134
33
49
121
43
93
2
123
102
6
105
12
120
82
42
122
97
34
48
85
5
90
9
112
63
7
124
69
88
139
50
129
57
92
32
130
104
47
138
18
103
51
94
19
38
61
36
140
108
98
22
65
40
53
81
46
136
27
28
31
87
29
110
4
119
13
3
59
60
17
67
14
56
8
131
10
91
26
20
54
72

> <PUBCHEM_MMFF94_PARTIAL_CHARGES>
35
1 -0.02
11 0.27
12 0.41
13 0.3
14 -0.14
15 0.46
16 -0.15
17 -0.15
18 0.05
19 -0.15
2 -0.56
20 -0.15
21 -0.15
22 0.41
23 -0.15
24 0.37
25 -0.15
26 0.16
27 0.28
28 0.28
3 -0.81
38 0.15
39 0.15
4 -0.57
40 0.15
41 0.15
42 0.15
43 0.15
44 0.4
47 0.15
48 0.15
5 -0.41
6 -0.87
7 -0.62
8 0.45

> <PUBCHEM_EFFECTIVE_ROTOR_COUNT>
9

> <PUBCHEM_PHARMACOPHORE_FEATURES>
10
1 2 acceptor
1 3 cation
1 6 cation
1 6 donor
1 7 acceptor
3 4 5 15 cation
5 1 4 5 13 15 rings
5 3 8 9 10 11 rings
6 14 16 17 19 20 21 rings
6 7 18 22 23 25 26 rings

> <PUBCHEM_HEAVY_ATOM_COUNT>
28

> <PUBCHEM_ATOM_DEF_STEREO_COUNT>
1

> <PUBCHEM_ATOM_UDEF_STEREO_COUNT>
0

> <PUBCHEM_BOND_DEF_STEREO_COUNT>
0

> <PUBCHEM_BOND_UDEF_STEREO_COUNT>
0

> <PUBCHEM_ISOTOPIC_ATOM_COUNT>
0

> <PUBCHEM_COMPONENT_COUNT>
1

> <PUBCHEM_CACTVS_TAUTO_COUNT>
8

> <PUBCHEM_CONFORMER_ID>
02BA994B00000001

> <PUBCHEM_MMFF94_ENERGY>
68.3426

> <PUBCHEM_FEATURE_SELFOVERLAP>
50.747

> <PUBCHEM_SHAPE_FINGERPRINT>
10759866 29 18044666535686858389
12403259 327 17417520410646063368
12422481 6 18200312113403955635
12633257 1 16845278480078910016
12788726 201 18059029366171409689
13726171 33 17623885660788966529
14117953 113 18267021657378133301
14178342 30 17986685778666494073
15264996 154 18336561502569573910
15403338 16 18040987419731193355
16110190 28 18342727547140623442
17349148 13 18272929449334023813
1813 80 17894620448947278608
19319366 153 17614851037877363957
1979834 28 17846509123061819263
20775530 9 18261939774495075858
21421861 104 18264511545325492817
23559900 14 18129965398240179685
23845131 108 13254789144715291589
35225 105 17131536328376078310
3680242 22 18410866473089259227
463206 1 18262799704046097970
474144 1 18261964053850144126
484985 159 16595029389006295298
5081480 168 14346374354442766397
7064713 232 18059853926660889683

> <PUBCHEM_SHAPE_MULTIPOLES>
539.58
10.34
4.05
2.12
5.88
0.5
1.28
-5.55
-5.01
-1.74
1.44
-1.7
-0.28
-2.53

> <PUBCHEM_SHAPE_SELFOVERLAP>
1154.274

> <PUBCHEM_SHAPE_VOLUME>
300.2

> <PUBCHEM_COORDINATE_TYPE>
2
5
10

$$$$
