26744752
  -OEChem-12032416403D

 46 50  0     1  0  0  0  0  0999 V2000
   -1.1349    1.0741   -2.1976 O   0  0  0  0  0  0  0  0  0  0  0  0
    1.6543   -0.1678   -0.4466 N   0  0  2  0  0  0  0  0  0  0  0  0
    1.2065   -3.3519    1.4320 N   0  0  0  0  0  0  0  0  0  0  0  0
    0.5693   -4.1782   -0.5458 N   0  0  0  0  0  0  0  0  0  0  0  0
   -1.6135   -0.1083   -0.3566 N   0  0  0  0  0  0  0  0  0  0  0  0
   -2.4149    1.4780   -1.7973 N   0  0  0  0  0  0  0  0  0  0  0  0
    0.6509   -0.4691   -1.5127 C   0  0  1  0  0  0  0  0  0  0  0  0
    0.6082   -2.0019   -1.8532 C   0  0  0  0  0  0  0  0  0  0  0  0
    1.4470   -0.8731    0.8359 C   0  0  0  0  0  0  0  0  0  0  0  0
    1.1668   -2.3003    0.5681 C   0  0  0  0  0  0  0  0  0  0  0  0
    0.7694   -2.8299   -0.6345 C   0  0  0  0  0  0  0  0  0  0  0  0
    1.8948    1.2561   -0.2405 C   0  0  0  0  0  0  0  0  0  0  0  0
   -0.7362    0.1389   -1.2962 C   0  0  0  0  0  0  0  0  0  0  0  0
    3.3185    1.5314    0.1646 C   0  0  0  0  0  0  0  0  0  0  0  0
    0.8390   -4.4627    0.7133 C   0  0  0  0  0  0  0  0  0  0  0  0
    3.6695    1.5426    1.5146 C   0  0  0  0  0  0  0  0  0  0  0  0
    4.2864    1.7750   -0.8096 C   0  0  0  0  0  0  0  0  0  0  0  0
   -2.6266    0.7366   -0.7057 C   0  0  0  0  0  0  0  0  0  0  0  0
    4.9885    1.7975    1.8903 C   0  0  0  0  0  0  0  0  0  0  0  0
    5.6053    2.0299   -0.4341 C   0  0  0  0  0  0  0  0  0  0  0  0
   -3.8388    0.8150    0.0571 C   0  0  0  0  0  0  0  0  0  0  0  0
    5.9564    2.0412    0.9159 C   0  0  0  0  0  0  0  0  0  0  0  0
   -4.0036    0.0145    1.1875 C   0  0  0  0  0  0  0  0  0  0  0  0
   -4.8526    1.6908   -0.3310 C   0  0  0  0  0  0  0  0  0  0  0  0
   -5.1823    0.0898    1.9296 C   0  0  0  0  0  0  0  0  0  0  0  0
   -6.0312    1.7662    0.4110 C   0  0  0  0  0  0  0  0  0  0  0  0
   -6.1961    0.9656    1.5414 C   0  0  0  0  0  0  0  0  0  0  0  0
    1.0295    0.0004   -2.4334 H   0  0  0  0  0  0  0  0  0  0  0  0
    1.4410   -2.2373   -2.5281 H   0  0  0  0  0  0  0  0  0  0  0  0
   -0.3228   -2.2612   -2.3697 H   0  0  0  0  0  0  0  0  0  0  0  0
    0.6128   -0.4371    1.3986 H   0  0  0  0  0  0  0  0  0  0  0  0
    2.3451   -0.8193    1.4583 H   0  0  0  0  0  0  0  0  0  0  0  0
    1.1953    1.6894    0.4874 H   0  0  0  0  0  0  0  0  0  0  0  0
    1.7138    1.8157   -1.1688 H   0  0  0  0  0  0  0  0  0  0  0  0
    1.4532   -3.3253    2.4127 H   0  0  0  0  0  0  0  0  0  0  0  0
    0.7887   -5.4423    1.1670 H   0  0  0  0  0  0  0  0  0  0  0  0
    2.9248    1.3676    2.2864 H   0  0  0  0  0  0  0  0  0  0  0  0
    4.0270    1.7668   -1.8650 H   0  0  0  0  0  0  0  0  0  0  0  0
    5.2612    1.8091    2.9415 H   0  0  0  0  0  0  0  0  0  0  0  0
    6.3591    2.2191   -1.1927 H   0  0  0  0  0  0  0  0  0  0  0  0
    6.9832    2.2403    1.2083 H   0  0  0  0  0  0  0  0  0  0  0  0
   -3.2322   -0.6778    1.5157 H   0  0  0  0  0  0  0  0  0  0  0  0
   -4.7601    2.3298   -1.2056 H   0  0  0  0  0  0  0  0  0  0  0  0
   -5.3109   -0.5333    2.8098 H   0  0  0  0  0  0  0  0  0  0  0  0
   -6.8209    2.4479    0.1092 H   0  0  0  0  0  0  0  0  0  0  0  0
   -7.1138    1.0243    2.1193 H   0  0  0  0  0  0  0  0  0  0  0  0
  1  6  1  0  0  0  0
  1 13  1  0  0  0  0
  2  7  1  0  0  0  0
  2  9  1  0  0  0  0
  2 12  1  0  0  0  0
  3 10  1  0  0  0  0
  3 15  1  0  0  0  0
  3 35  1  0  0  0  0
  4 11  1  0  0  0  0
  4 15  2  0  0  0  0
  5 13  2  0  0  0  0
  5 18  1  0  0  0  0
  6 18  2  0  0  0  0
  7  8  1  0  0  0  0
  7 13  1  0  0  0  0
  7 28  1  0  0  0  0
  8 11  1  0  0  0  0
  8 29  1  0  0  0  0
  8 30  1  0  0  0  0
  9 10  1  0  0  0  0
  9 31  1  0  0  0  0
  9 32  1  0  0  0  0
 10 11  2  0  0  0  0
 12 14  1  0  0  0  0
 12 33  1  0  0  0  0
 12 34  1  0  0  0  0
 14 16  2  0  0  0  0
 14 17  1  0  0  0  0
 15 36  1  0  0  0  0
 16 19  1  0  0  0  0
 16 37  1  0  0  0  0
 17 20  2  0  0  0  0
 17 38  1  0  0  0  0
 18 21  1  0  0  0  0
 19 22  2  0  0  0  0
 19 39  1  0  0  0  0
 20 22  1  0  0  0  0
 20 40  1  0  0  0  0
 21 23  2  0  0  0  0
 21 24  1  0  0  0  0
 22 41  1  0  0  0  0
 23 25  1  0  0  0  0
 23 42  1  0  0  0  0
 24 26  2  0  0  0  0
 24 43  1  0  0  0  0
 25 27  2  0  0  0  0
 25 44  1  0  0  0  0
 26 27  1  0  0  0  0
 26 45  1  0  0  0  0
 27 46  1  0  0  0  0
M  END
> <PUBCHEM_COMPOUND_CID>
26744752

> <PUBCHEM_CONFORMER_RMSD>
0.8

> <PUBCHEM_CONFORMER_DIVERSEORDER>
3
29
36
44
35
40
42
32
18
41
38
43
16
17
21
11
28
31
6
22
23
39
10
27
26
13
15
20
5
33
1
34
9
37
7
25
12
30
8
14
4
2
24
19

> <PUBCHEM_MMFF94_PARTIAL_CHARGES>
39
1 -0.02
10 -0.33
11 0.05
12 0.41
13 0.3
14 -0.14
15 0.04
16 -0.15
17 -0.15
18 0.46
19 -0.15
2 -0.81
20 -0.15
21 0.05
22 -0.15
23 -0.15
24 -0.15
25 -0.15
26 -0.15
27 -0.15
3 0.03
35 0.27
36 0.15
37 0.15
38 0.15
39 0.15
4 -0.57
40 0.15
41 0.15
42 0.15
43 0.15
44 0.15
45 0.15
46 0.15
5 -0.57
6 -0.41
7 0.45
8 0.18
9 0.45

> <PUBCHEM_EFFECTIVE_ROTOR_COUNT>
4.8

> <PUBCHEM_PHARMACOPHORE_FEATURES>
9
1 2 cation
1 3 donor
3 3 4 15 cation
3 5 6 18 cation
5 1 5 6 13 18 rings
5 3 4 10 11 15 rings
6 14 16 17 19 20 22 rings
6 2 7 8 9 10 11 rings
6 21 23 24 25 26 27 rings

> <PUBCHEM_HEAVY_ATOM_COUNT>
27

> <PUBCHEM_ATOM_DEF_STEREO_COUNT>
1

> <PUBCHEM_ATOM_UDEF_STEREO_COUNT>
0

> <PUBCHEM_BOND_DEF_STEREO_COUNT>
0

> <PUBCHEM_BOND_UDEF_STEREO_COUNT>
0

> <PUBCHEM_ISOTOPIC_ATOM_COUNT>
0

> <PUBCHEM_COMPONENT_COUNT>
1

> <PUBCHEM_CACTVS_TAUTO_COUNT>
2

> <PUBCHEM_CONFORMER_ID>
019817B000000003

> <PUBCHEM_MMFF94_ENERGY>
61.6103

> <PUBCHEM_FEATURE_SELFOVERLAP>
45.774

> <PUBCHEM_SHAPE_FINGERPRINT>
10074138 170 17973717266744893858
10764073 3 17313653855222976042
10794284 68 16811269615133276990
11070050 100 18412827979820064874
11115154 58 8790616892447495567
11497681 19 12324507707500428024
11823591 26 18272079517923814028
1200032 147 16414384203002854395
12373685 5 18335967702919949991
12422481 6 17967531272318610218
12623949 98 14707474847078551504
12788726 201 17687184609787654790
12977781 61 16300048131903531023
13533116 47 18191879916571931897
13540713 4 17679295274708894429
13631057 29 17986382498989920663
13955234 65 18267871575218541219
14178342 30 18116447001930433019
14565420 104 18413389830378097473
14955137 171 18123467173099377742
15064986 96 17970604330689068066
15142526 21 18129938004801739177
15338160 23 17833834150690964008
15420108 30 18410289241900567307
15775530 1 17608630735511244860
16992727 255 12246588633284231379
16993089 31 14274831337202356832
17913733 40 18411134723254880561
17980427 23 17313671571799164679
18222031 100 8142089771229463016
1979834 28 18186812352693315741
21033648 29 18269832167997272720
21120745 212 17253440505292198364
21424621 283 18059856199100120096
21756936 100 18200021984294860160
21796203 349 17907593427756719011
22224240 67 18410857706844729841
23536364 44 10663557962716207675
23559900 14 17533795814489151703
23845131 108 18410288142583942899
249999 5 18338800005153246162
255183 313 18261944271642585728
3178227 256 18264205821227394114
3411729 13 18340489967509883213
38570 142 17489878141130293085
4058900 60 18340499888636787832
4339292 15 11026055973549748520
437795 51 18338530638164077502
508180 173 10807946933878381903
58260988 521 17967819332097214458
59444896 2 16229169450300631894
5969126 39 8790622402868924344
59755656 520 18342172310827074636
621550 34 18260549966154487133
6442390 28 18336273430469504126
6669772 16 18413394224736608334
6679774 75 17967527949027468610
6691757 9 18121469571283088392
9658208 31 18339938116147762918
9841814 1 18052260583559342839

> <PUBCHEM_SHAPE_MULTIPOLES>
524.87
13.06
4.19
1.89
6.95
6.94
-0.08
-15.8
6.66
-3.43
0.72
0.36
-0.14
0.6

> <PUBCHEM_SHAPE_SELFOVERLAP>
1163.785

> <PUBCHEM_SHAPE_VOLUME>
280.5

> <PUBCHEM_COORDINATE_TYPE>
2
5
10

$$$$
