40586261
  -OEChem-12032416113D

 60 64  0     1  0  0  0  0  0999 V2000
   -3.2553   -0.9488    2.1809 O   0  0  0  0  0  0  0  0  0  0  0  0
    1.3186    1.7638    1.6001 O   0  0  0  0  0  0  0  0  0  0  0  0
    6.8391   -0.9097    0.3235 O   0  0  0  0  0  0  0  0  0  0  0  0
   -3.4147    0.5671    0.4275 N   0  0  0  0  0  0  0  0  0  0  0  0
   -0.5317    1.9201    0.1889 N   0  0  0  0  0  0  0  0  0  0  0  0
   -2.7626    2.9209    0.9485 C   0  0  1  0  0  0  0  0  0  0  0  0
   -2.5241    2.0687   -1.3453 C   0  0  2  0  0  0  0  0  0  0  0  0
   -2.9409    3.2844   -0.5205 C   0  0  0  0  0  0  0  0  0  0  0  0
   -3.6383    1.7100    1.3148 C   0  0  0  0  0  0  0  0  0  0  0  0
   -3.4424    0.8771   -1.0099 C   0  0  0  0  0  0  0  0  0  0  0  0
   -1.2760    2.6595    1.2176 C   0  0  0  0  0  0  0  0  0  0  0  0
   -1.0785    1.6951   -1.0766 C   0  0  0  0  0  0  0  0  0  0  0  0
   -3.1385   -1.8414   -0.0011 C   0  0  0  0  0  0  0  0  0  0  0  0
   -3.2762   -0.7101    0.9708 C   0  0  0  0  0  0  0  0  0  0  0  0
   -1.6641   -2.0526   -0.3483 C   0  0  0  0  0  0  0  0  0  0  0  0
   -3.7591   -3.1028    0.6021 C   0  0  0  0  0  0  0  0  0  0  0  0
   -0.3364    1.1248   -2.0392 C   0  0  0  0  0  0  0  0  0  0  0  0
   -1.4711   -3.2642   -1.2569 C   0  0  0  0  0  0  0  0  0  0  0  0
   -3.5611   -4.3142   -0.3053 C   0  0  0  0  0  0  0  0  0  0  0  0
    0.7905    1.5518    0.5072 C   0  0  0  0  0  0  0  0  0  0  0  0
   -2.0900   -4.5224   -0.6544 C   0  0  0  0  0  0  0  0  0  0  0  0
    1.5853    0.8816   -0.5811 C   0  0  0  0  0  0  0  0  0  0  0  0
    1.0130    0.7091   -1.7820 C   0  0  0  0  0  0  0  0  0  0  0  0
    2.9617    0.4135   -0.3430 C   0  0  0  0  0  0  0  0  0  0  0  0
    4.0126    0.9189   -1.1086 C   0  0  0  0  0  0  0  0  0  0  0  0
    3.2140   -0.5363    0.6469 C   0  0  0  0  0  0  0  0  0  0  0  0
    5.3155    0.4745   -0.8844 C   0  0  0  0  0  0  0  0  0  0  0  0
    4.5170   -0.9809    0.8711 C   0  0  0  0  0  0  0  0  0  0  0  0
    5.5677   -0.4754    0.1055 C   0  0  0  0  0  0  0  0  0  0  0  0
    7.0257   -1.8819    1.3510 C   0  0  0  0  0  0  0  0  0  0  0  0
   -3.0823    3.7618    1.5764 H   0  0  0  0  0  0  0  0  0  0  0  0
   -2.6516    2.3164   -2.4072 H   0  0  0  0  0  0  0  0  0  0  0  0
   -2.3310    4.1590   -0.7795 H   0  0  0  0  0  0  0  0  0  0  0  0
   -3.9854    3.5482   -0.7262 H   0  0  0  0  0  0  0  0  0  0  0  0
   -3.4739    1.4273    2.3600 H   0  0  0  0  0  0  0  0  0  0  0  0
   -4.6981    1.9772    1.2198 H   0  0  0  0  0  0  0  0  0  0  0  0
   -4.4824    1.1191   -1.2609 H   0  0  0  0  0  0  0  0  0  0  0  0
   -3.1525    0.0342   -1.6365 H   0  0  0  0  0  0  0  0  0  0  0  0
   -0.7624    3.6258    1.3160 H   0  0  0  0  0  0  0  0  0  0  0  0
   -1.1436    2.1489    2.1799 H   0  0  0  0  0  0  0  0  0  0  0  0
   -3.7197   -1.6529   -0.9077 H   0  0  0  0  0  0  0  0  0  0  0  0
   -1.0779   -2.1906    0.5699 H   0  0  0  0  0  0  0  0  0  0  0  0
   -1.2526   -1.1723   -0.8414 H   0  0  0  0  0  0  0  0  0  0  0  0
   -4.8306   -2.9497    0.7812 H   0  0  0  0  0  0  0  0  0  0  0  0
   -3.3105   -3.3298    1.5782 H   0  0  0  0  0  0  0  0  0  0  0  0
   -0.7403    0.9289   -3.0269 H   0  0  0  0  0  0  0  0  0  0  0  0
   -0.4015   -3.4266   -1.4316 H   0  0  0  0  0  0  0  0  0  0  0  0
   -1.9278   -3.0635   -2.2338 H   0  0  0  0  0  0  0  0  0  0  0  0
   -4.1389   -4.1775   -1.2278 H   0  0  0  0  0  0  0  0  0  0  0  0
   -3.9536   -5.2115    0.1863 H   0  0  0  0  0  0  0  0  0  0  0  0
   -1.9926   -5.3553   -1.3598 H   0  0  0  0  0  0  0  0  0  0  0  0
   -1.5369   -4.8032    0.2503 H   0  0  0  0  0  0  0  0  0  0  0  0
    1.5353    0.2249   -2.6020 H   0  0  0  0  0  0  0  0  0  0  0  0
    3.8377    1.6639   -1.8811 H   0  0  0  0  0  0  0  0  0  0  0  0
    2.4056   -0.9450    1.2487 H   0  0  0  0  0  0  0  0  0  0  0  0
    6.1302    0.8725   -1.4832 H   0  0  0  0  0  0  0  0  0  0  0  0
    4.6418   -1.7208    1.6543 H   0  0  0  0  0  0  0  0  0  0  0  0
    8.0955   -2.1122    1.3875 H   0  0  0  0  0  0  0  0  0  0  0  0
    6.5051   -2.8173    1.1193 H   0  0  0  0  0  0  0  0  0  0  0  0
    6.7503   -1.4861    2.3344 H   0  0  0  0  0  0  0  0  0  0  0  0
  1 14  2  0  0  0  0
  2 20  2  0  0  0  0
  3 29  1  0  0  0  0
  3 30  1  0  0  0  0
  4  9  1  0  0  0  0
  4 10  1  0  0  0  0
  4 14  1  0  0  0  0
  5 11  1  0  0  0  0
  5 12  1  0  0  0  0
  5 20  1  0  0  0  0
  6  8  1  0  0  0  0
  6  9  1  0  0  0  0
  6 11  1  0  0  0  0
  6 31  1  0  0  0  0
  7  8  1  0  0  0  0
  7 10  1  0  0  0  0
  7 12  1  0  0  0  0
  7 32  1  0  0  0  0
  8 33  1  0  0  0  0
  8 34  1  0  0  0  0
  9 35  1  0  0  0  0
  9 36  1  0  0  0  0
 10 37  1  0  0  0  0
 10 38  1  0  0  0  0
 11 39  1  0  0  0  0
 11 40  1  0  0  0  0
 12 17  2  0  0  0  0
 13 14  1  0  0  0  0
 13 15  1  0  0  0  0
 13 16  1  0  0  0  0
 13 41  1  0  0  0  0
 15 18  1  0  0  0  0
 15 42  1  0  0  0  0
 15 43  1  0  0  0  0
 16 19  1  0  0  0  0
 16 44  1  0  0  0  0
 16 45  1  0  0  0  0
 17 23  1  0  0  0  0
 17 46  1  0  0  0  0
 18 21  1  0  0  0  0
 18 47  1  0  0  0  0
 18 48  1  0  0  0  0
 19 21  1  0  0  0  0
 19 49  1  0  0  0  0
 19 50  1  0  0  0  0
 20 22  1  0  0  0  0
 21 51  1  0  0  0  0
 21 52  1  0  0  0  0
 22 23  2  0  0  0  0
 22 24  1  0  0  0  0
 23 53  1  0  0  0  0
 24 25  2  0  0  0  0
 24 26  1  0  0  0  0
 25 27  1  0  0  0  0
 25 54  1  0  0  0  0
 26 28  2  0  0  0  0
 26 55  1  0  0  0  0
 27 29  2  0  0  0  0
 27 56  1  0  0  0  0
 28 29  1  0  0  0  0
 28 57  1  0  0  0  0
 30 58  1  0  0  0  0
 30 59  1  0  0  0  0
 30 60  1  0  0  0  0
M  END
> <PUBCHEM_COMPOUND_CID>
40586261

> <PUBCHEM_CONFORMER_RMSD>
0.8

> <PUBCHEM_CONFORMER_DIVERSEORDER>
1
9
7
3
10
5
4
6
2
8
11

> <PUBCHEM_MMFF94_PARTIAL_CHARGES>
29
1 -0.57
10 0.3
11 0.3
12 -0.03
13 0.06
14 0.57
17 -0.15
2 -0.57
20 0.62
22 -0.01
23 -0.15
24 0.03
25 -0.15
26 -0.15
27 -0.15
28 -0.15
29 0.08
3 -0.36
30 0.28
4 -0.66
46 0.15
5 -0.47
53 0.15
54 0.15
55 0.15
56 0.15
57 0.15
7 0.14
9 0.3

> <PUBCHEM_EFFECTIVE_ROTOR_COUNT>
6.2

> <PUBCHEM_PHARMACOPHORE_FEATURES>
8
1 1 acceptor
1 2 acceptor
1 3 acceptor
6 13 15 16 18 19 21 rings
6 24 25 26 27 28 29 rings
6 4 6 7 8 9 10 rings
6 5 12 17 20 22 23 rings
6 5 6 7 8 11 12 rings

> <PUBCHEM_HEAVY_ATOM_COUNT>
30

> <PUBCHEM_ATOM_DEF_STEREO_COUNT>
2

> <PUBCHEM_ATOM_UDEF_STEREO_COUNT>
0

> <PUBCHEM_BOND_DEF_STEREO_COUNT>
0

> <PUBCHEM_BOND_UDEF_STEREO_COUNT>
0

> <PUBCHEM_ISOTOPIC_ATOM_COUNT>
0

> <PUBCHEM_COMPONENT_COUNT>
1

> <PUBCHEM_CACTVS_TAUTO_COUNT>
3

> <PUBCHEM_CONFORMER_ID>
026B4C1500000001

> <PUBCHEM_MMFF94_ENERGY>
84.6854

> <PUBCHEM_FEATURE_SELFOVERLAP>
42.164

> <PUBCHEM_SHAPE_FINGERPRINT>
10291535 26 9151169861380261564
10483366 6 18338781400404654735
10622 236 18114452457514569514
11014199 57 17978793733337054434
11049842 53 17396453531387261245
11135609 149 17406804738364274727
11524674 6 18270675351264572383
11552529 35 18411138056239231172
12422481 6 17974605457739659153
12523318 42 18413384337199328392
12633257 1 17845111695327447785
12788726 201 18265346169018981590
12969540 37 17403173098358711981
13004483 165 18196372739604227615
13009979 54 18189627205275750567
13103583 49 18057905699415127363
13631057 29 18265337381684458636
14020679 6 17632025130700006633
14068700 675 17773026673961151207
14114206 34 16878209948595005525
14659021 117 18189889997413976802
14844126 61 18410013247407166963
14856354 85 18343865503052321124
14950920 106 17917156095009630000
15021287 119 17458348507839037644
15250474 111 18334293167653277810
15320294 125 18261671472294389998
15439362 3 17111277521634787909
15484559 13 13490611011676623990
16728300 4 18114179679846594787
18927931 339 15936983916201901920
20511986 3 17967807224463438472
20775530 9 17980483687140732335
23559900 14 18337099172287156249
3383291 50 18341608209844036531
397830 11 18271792567881562544
4409770 3 18409162195627054397
445580 42 18342450448049758926
44880168 125 17488481804682476422
463206 1 17975420423189115555
484985 159 18335973221046084063
5080951 261 18043785668650056122
508706 21 18343311344185188134
5104073 3 18341040875171708928
7970288 3 17827365688971735507
9981440 41 18195813968680404793

> <PUBCHEM_SHAPE_MULTIPOLES>
589.82
12.01
4.87
1.66
25.95
4.77
0.02
6.3
-3.42
-7.9
0.31
-0.3
-0.45
-1.31

> <PUBCHEM_SHAPE_SELFOVERLAP>
1281.849

> <PUBCHEM_SHAPE_VOLUME>
314.6

> <PUBCHEM_COORDINATE_TYPE>
2
5
10

$$$$
