26742268
  -OEChem-12032416183D

 70 73  0     1  0  0  0  0  0999 V2000
   -4.7992   -1.8260    2.6745 O   0  0  0  0  0  0  0  0  0  0  0  0
   -3.8482    3.2446   -0.2649 O   0  0  0  0  0  0  0  0  0  0  0  0
    7.6343    2.0613    1.0885 O   0  0  0  0  0  0  0  0  0  0  0  0
   -3.0010   -3.0732   -1.1335 O   0  0  0  0  0  0  0  0  0  0  0  0
    3.2237   -2.4907   -0.1551 O   0  0  0  0  0  0  0  0  0  0  0  0
   -4.9028    1.1967   -0.4597 N   0  0  0  0  0  0  0  0  0  0  0  0
   -2.9991   -1.2910    0.3488 N   0  0  0  0  0  0  0  0  0  0  0  0
    5.9579   -0.2269    0.8519 N   0  0  0  0  0  0  0  0  0  0  0  0
   -2.6614    1.4605   -1.1623 N   0  0  0  0  0  0  0  0  0  0  0  0
    2.9173    0.0666   -2.5551 N   0  0  0  0  0  0  0  0  0  0  0  0
   -4.4384   -1.1229    0.4055 C   0  0  1  0  0  0  0  0  0  0  0  0
   -4.8336   -0.6718    1.8238 C   0  0  1  0  0  0  0  0  0  0  0  0
   -6.2287   -0.0548    1.9616 C   0  0  0  0  0  0  0  0  0  0  0  0
   -4.9252   -0.2428   -0.7525 C   0  0  0  0  0  0  0  0  0  0  0  0
   -6.2710    1.4327    1.6046 C   0  0  0  0  0  0  0  0  0  0  0  0
   -6.1395    1.7290    0.1156 C   0  0  0  0  0  0  0  0  0  0  0  0
   -3.7917    2.0613   -0.6086 C   0  0  0  0  0  0  0  0  0  0  0  0
   -2.4017   -2.2661   -0.4278 C   0  0  0  0  0  0  0  0  0  0  0  0
    5.4765    1.1176    0.5048 C   0  0  0  0  0  0  0  0  0  0  0  0
    7.4095   -0.3122    0.6397 C   0  0  0  0  0  0  0  0  0  0  0  0
   -0.9191   -2.3252   -0.3562 C   0  0  0  0  0  0  0  0  0  0  0  0
    5.2586   -1.2458    0.0718 C   0  0  0  0  0  0  0  0  0  0  0  0
    6.2291    2.1642    1.3216 C   0  0  0  0  0  0  0  0  0  0  0  0
    8.1159    0.7676    1.4543 C   0  0  0  0  0  0  0  0  0  0  0  0
    3.8747   -1.5050    0.6454 C   0  0  0  0  0  0  0  0  0  0  0  0
   -1.3007    1.7866   -0.9328 C   0  0  0  0  0  0  0  0  0  0  0  0
   -0.1876   -2.8210   -1.4357 C   0  0  0  0  0  0  0  0  0  0  0  0
   -0.2582   -1.8850    0.7907 C   0  0  0  0  0  0  0  0  0  0  0  0
    1.8654   -2.4359   -0.2216 C   0  0  0  0  0  0  0  0  0  0  0  0
    1.2046   -2.8761   -1.3685 C   0  0  0  0  0  0  0  0  0  0  0  0
    1.1340   -1.9404    0.8579 C   0  0  0  0  0  0  0  0  0  0  0  0
   -0.2928    1.0718   -1.5801 C   0  0  0  0  0  0  0  0  0  0  0  0
   -0.9701    2.8231   -0.0597 C   0  0  0  0  0  0  0  0  0  0  0  0
    1.0455    1.3933   -1.3543 C   0  0  0  0  0  0  0  0  0  0  0  0
    0.3684    3.1448    0.1659 C   0  0  0  0  0  0  0  0  0  0  0  0
    1.3762    2.4299   -0.4812 C   0  0  0  0  0  0  0  0  0  0  0  0
    2.0784    0.6611   -2.0169 C   0  0  0  0  0  0  0  0  0  0  0  0
   -4.8635   -2.1219    0.2364 H   0  0  0  0  0  0  0  0  0  0  0  0
   -4.0868    0.0268    2.2222 H   0  0  0  0  0  0  0  0  0  0  0  0
   -6.5606   -0.1508    3.0040 H   0  0  0  0  0  0  0  0  0  0  0  0
   -6.9608   -0.6196    1.3713 H   0  0  0  0  0  0  0  0  0  0  0  0
   -4.3617   -0.4471   -1.6677 H   0  0  0  0  0  0  0  0  0  0  0  0
   -5.9608   -0.5145   -0.9931 H   0  0  0  0  0  0  0  0  0  0  0  0
   -7.2269    1.8455    1.9499 H   0  0  0  0  0  0  0  0  0  0  0  0
   -5.4856    1.9628    2.1578 H   0  0  0  0  0  0  0  0  0  0  0  0
   -6.9916    1.3182   -0.4385 H   0  0  0  0  0  0  0  0  0  0  0  0
   -6.1749    2.8145   -0.0298 H   0  0  0  0  0  0  0  0  0  0  0  0
   -2.4320   -0.5905    0.8151 H   0  0  0  0  0  0  0  0  0  0  0  0
   -4.9200   -1.5211    3.5899 H   0  0  0  0  0  0  0  0  0  0  0  0
    4.4100    1.2317    0.7188 H   0  0  0  0  0  0  0  0  0  0  0  0
    5.6308    1.3139   -0.5644 H   0  0  0  0  0  0  0  0  0  0  0  0
    7.6454   -0.1819   -0.4246 H   0  0  0  0  0  0  0  0  0  0  0  0
    7.7851   -1.2925    0.9545 H   0  0  0  0  0  0  0  0  0  0  0  0
   -2.7977    0.6529   -1.7602 H   0  0  0  0  0  0  0  0  0  0  0  0
    5.8037   -2.1989    0.1127 H   0  0  0  0  0  0  0  0  0  0  0  0
    5.2046   -0.9902   -0.9942 H   0  0  0  0  0  0  0  0  0  0  0  0
    5.9151    3.1687    1.0200 H   0  0  0  0  0  0  0  0  0  0  0  0
    6.0273    2.0621    2.3949 H   0  0  0  0  0  0  0  0  0  0  0  0
    7.9784    0.6169    2.5320 H   0  0  0  0  0  0  0  0  0  0  0  0
    9.1914    0.7436    1.2514 H   0  0  0  0  0  0  0  0  0  0  0  0
    3.3002   -0.5727    0.6477 H   0  0  0  0  0  0  0  0  0  0  0  0
    3.9549   -1.8802    1.6729 H   0  0  0  0  0  0  0  0  0  0  0  0
   -0.6844   -3.1632   -2.3397 H   0  0  0  0  0  0  0  0  0  0  0  0
   -0.7921   -1.5250    1.6653 H   0  0  0  0  0  0  0  0  0  0  0  0
    1.7692   -3.2614   -2.2130 H   0  0  0  0  0  0  0  0  0  0  0  0
    1.6066   -1.6200    1.7817 H   0  0  0  0  0  0  0  0  0  0  0  0
   -0.5532    0.2689   -2.2667 H   0  0  0  0  0  0  0  0  0  0  0  0
   -1.7069    3.3959    0.4899 H   0  0  0  0  0  0  0  0  0  0  0  0
    0.6268    3.9479    0.8500 H   0  0  0  0  0  0  0  0  0  0  0  0
    2.4149    2.6918   -0.2941 H   0  0  0  0  0  0  0  0  0  0  0  0
  1 12  1  0  0  0  0
  1 49  1  0  0  0  0
  2 17  2  0  0  0  0
  3 23  1  0  0  0  0
  3 24  1  0  0  0  0
  4 18  2  0  0  0  0
  5 25  1  0  0  0  0
  5 29  1  0  0  0  0
  6 14  1  0  0  0  0
  6 16  1  0  0  0  0
  6 17  1  0  0  0  0
  7 11  1  0  0  0  0
  7 18  1  0  0  0  0
  7 48  1  0  0  0  0
  8 19  1  0  0  0  0
  8 20  1  0  0  0  0
  8 22  1  0  0  0  0
  9 17  1  0  0  0  0
  9 26  1  0  0  0  0
  9 54  1  0  0  0  0
 10 37  3  0  0  0  0
 11 12  1  0  0  0  0
 11 14  1  0  0  0  0
 11 38  1  0  0  0  0
 12 13  1  0  0  0  0
 12 39  1  0  0  0  0
 13 15  1  0  0  0  0
 13 40  1  0  0  0  0
 13 41  1  0  0  0  0
 14 42  1  0  0  0  0
 14 43  1  0  0  0  0
 15 16  1  0  0  0  0
 15 44  1  0  0  0  0
 15 45  1  0  0  0  0
 16 46  1  0  0  0  0
 16 47  1  0  0  0  0
 18 21  1  0  0  0  0
 19 23  1  0  0  0  0
 19 50  1  0  0  0  0
 19 51  1  0  0  0  0
 20 24  1  0  0  0  0
 20 52  1  0  0  0  0
 20 53  1  0  0  0  0
 21 27  2  0  0  0  0
 21 28  1  0  0  0  0
 22 25  1  0  0  0  0
 22 55  1  0  0  0  0
 22 56  1  0  0  0  0
 23 57  1  0  0  0  0
 23 58  1  0  0  0  0
 24 59  1  0  0  0  0
 24 60  1  0  0  0  0
 25 61  1  0  0  0  0
 25 62  1  0  0  0  0
 26 32  1  0  0  0  0
 26 33  2  0  0  0  0
 27 30  1  0  0  0  0
 27 63  1  0  0  0  0
 28 31  2  0  0  0  0
 28 64  1  0  0  0  0
 29 30  2  0  0  0  0
 29 31  1  0  0  0  0
 30 65  1  0  0  0  0
 31 66  1  0  0  0  0
 32 34  2  0  0  0  0
 32 67  1  0  0  0  0
 33 35  1  0  0  0  0
 33 68  1  0  0  0  0
 34 36  1  0  0  0  0
 34 37  1  0  0  0  0
 35 36  2  0  0  0  0
 35 69  1  0  0  0  0
 36 70  1  0  0  0  0
M  END
> <PUBCHEM_COMPOUND_CID>
26742268

> <PUBCHEM_CONFORMER_RMSD>
1.2

> <PUBCHEM_CONFORMER_DIVERSEORDER>
1
111
15
172
59
171
142
154
153
181
119
160
104
139
165
94
162
103
79
74
147
182
158
146
179
81
84
128
83
52
28
72
99
130
178
78
168
4
69
125
93
121
167
29
159
71
102
88
17
55
97
3
122
180
85
66
57
150
96
174
124
115
62
60
131
118
16
156
120
47
37
18
164
113
48
75
21
184
109
31
166
144
135
22
70
67
151
91
87
143
2
40
33
95
133
49
117
45
19
77
140
63
137
76
114
27
129
127
82
145
42
51
175
53
46
155
112
134
101
86
73
38
169
163
170
152
90
9
43
34
107
138
26
149
183
20
36
50
126
24
39
89
177
65
161
68
123
148
32
141
6
110
98
92
11
61
80
64
157
10
41
13
100
7
173
136
106
176
23
35
56
44
54
30
58
8
105
116
108
12
132
14
25
5

> <PUBCHEM_MMFF94_PARTIAL_CHARGES>
46
1 -0.68
10 -0.56
11 0.3
12 0.28
14 0.3
16 0.3
17 0.69
18 0.54
19 0.27
2 -0.57
20 0.27
21 0.09
22 0.27
23 0.28
24 0.28
25 0.28
26 0.12
27 -0.15
28 -0.15
29 0.08
3 -0.56
30 -0.15
31 -0.15
32 -0.15
33 -0.15
34 0.07
35 -0.15
36 -0.15
37 0.48
4 -0.57
48 0.37
49 0.4
5 -0.36
54 0.37
6 -0.66
63 0.15
64 0.15
65 0.15
66 0.15
67 0.15
68 0.15
69 0.15
7 -0.73
70 0.15
8 -0.81
9 -0.55

> <PUBCHEM_EFFECTIVE_ROTOR_COUNT>
12.6

> <PUBCHEM_PHARMACOPHORE_FEATURES>
14
1 1 acceptor
1 1 donor
1 10 acceptor
1 2 acceptor
1 3 acceptor
1 4 acceptor
1 5 acceptor
1 7 donor
1 8 cation
1 9 donor
6 21 27 28 29 30 31 rings
6 26 32 33 34 35 36 rings
6 3 8 19 20 23 24 rings
7 6 11 12 13 14 15 16 rings

> <PUBCHEM_HEAVY_ATOM_COUNT>
37

> <PUBCHEM_ATOM_DEF_STEREO_COUNT>
2

> <PUBCHEM_ATOM_UDEF_STEREO_COUNT>
0

> <PUBCHEM_BOND_DEF_STEREO_COUNT>
0

> <PUBCHEM_BOND_UDEF_STEREO_COUNT>
0

> <PUBCHEM_ISOTOPIC_ATOM_COUNT>
0

> <PUBCHEM_COMPONENT_COUNT>
1

> <PUBCHEM_CACTVS_TAUTO_COUNT>
4

> <PUBCHEM_CONFORMER_ID>
01980DFC00000001

> <PUBCHEM_MMFF94_ENERGY>
96.0439

> <PUBCHEM_FEATURE_SELFOVERLAP>
71.051

> <PUBCHEM_SHAPE_FINGERPRINT>
10006869 2 18264754477292290018
10290309 65 17969779679288200355
10675989 125 16530581424808089893
10864689 126 18194964033359927740
10939801 23 18335140947132190060
11479125 193 16125815348994834656
11578080 2 16988850483810062022
12422481 6 18333733528428187978
12677640 9 17982163723570154606
13111901 25 18114188575024291444
13782708 43 13767921343241886826
13811026 1 18334573563965248499
14289585 56 13758076285877861522
14394314 77 18341329998979440265
15183329 4 9799692614965109924
15968369 153 18411709755135915525
16110190 28 18408887368721842284
20721686 56 18335417959331710883
21026386 80 17275108332871712164
392239 28 18341326764942120356
4093350 32 17131838638481897812
469060 322 16443056176431836806
56638632 10 18130781321435155769

> <PUBCHEM_SHAPE_MULTIPOLES>
707.19
18.03
4.09
1.89
19.88
0.19
-0.09
-7.35
-12.44
-0.7
0.67
-0.7
0.18
1.46

> <PUBCHEM_SHAPE_SELFOVERLAP>
1489.779

> <PUBCHEM_SHAPE_VOLUME>
391

> <PUBCHEM_COORDINATE_TYPE>
2
5
10

$$$$
