51137965
  -OEChem-12032416323D

 56 59  0     1  0  0  0  0  0999 V2000
   -1.8131    1.0109    2.0892 O   0  0  0  0  0  0  0  0  0  0  0  0
    0.4118    1.0289    0.7669 N   0  0  0  0  0  0  0  0  0  0  0  0
   -2.8584   -0.4113    0.5793 N   0  0  0  0  0  0  0  0  0  0  0  0
   -5.1639   -0.9980   -1.0173 N   0  0  0  0  0  0  0  0  0  0  0  0
    3.2099   -3.1651    0.4745 N   0  0  0  0  0  0  0  0  0  0  0  0
    1.3781    1.2695   -0.3131 C   0  0  2  0  0  0  0  0  0  0  0  0
   -0.4105   -0.1600    0.5934 C   0  0  1  0  0  0  0  0  0  0  0  0
    0.1541   -1.3503    1.3663 C   0  0  0  0  0  0  0  0  0  0  0  0
    2.4708    0.2090   -0.4822 C   0  0  0  0  0  0  0  0  0  0  0  0
    1.9526    2.6666   -0.0173 C   0  0  0  0  0  0  0  0  0  0  0  0
    2.4301   -1.1054    0.0663 C   0  0  0  0  0  0  0  0  0  0  0  0
    1.4741   -1.8283    0.8609 C   0  0  0  0  0  0  0  0  0  0  0  0
   -1.7494    0.2024    1.1597 C   0  0  0  0  0  0  0  0  0  0  0  0
    0.9943    3.8000   -0.3959 C   0  0  0  0  0  0  0  0  0  0  0  0
   -2.8084   -1.4708   -0.4325 C   0  0  0  0  0  0  0  0  0  0  0  0
   -4.2008   -0.1066    1.0724 C   0  0  0  0  0  0  0  0  0  0  0  0
    3.4910   -1.9861   -0.1746 C   0  0  0  0  0  0  0  0  0  0  0  0
   -3.8122   -1.2077   -1.5564 C   0  0  0  0  0  0  0  0  0  0  0  0
   -5.1738    0.1354   -0.0810 C   0  0  0  0  0  0  0  0  0  0  0  0
    1.9983   -3.0835    1.0948 C   0  0  0  0  0  0  0  0  0  0  0  0
    3.5843    0.5077   -1.3081 C   0  0  0  0  0  0  0  0  0  0  0  0
    4.6019   -1.6569   -0.9530 C   0  0  0  0  0  0  0  0  0  0  0  0
   -0.3344    3.7246    0.3575 C   0  0  0  0  0  0  0  0  0  0  0  0
    1.6698    5.1454   -0.1199 C   0  0  0  0  0  0  0  0  0  0  0  0
    4.6242   -0.3933   -1.5291 C   0  0  0  0  0  0  0  0  0  0  0  0
   -6.1206   -0.7773   -2.1009 C   0  0  0  0  0  0  0  0  0  0  0  0
    0.8431    1.3123   -1.2719 H   0  0  0  0  0  0  0  0  0  0  0  0
   -0.4862   -0.3578   -0.4768 H   0  0  0  0  0  0  0  0  0  0  0  0
    0.2564   -1.1027    2.4323 H   0  0  0  0  0  0  0  0  0  0  0  0
   -0.5601   -2.1834    1.3249 H   0  0  0  0  0  0  0  0  0  0  0  0
    0.8739    1.0281    1.6754 H   0  0  0  0  0  0  0  0  0  0  0  0
    2.2421    2.7470    1.0411 H   0  0  0  0  0  0  0  0  0  0  0  0
    2.8806    2.8525   -0.5655 H   0  0  0  0  0  0  0  0  0  0  0  0
    0.7838    3.7489   -1.4718 H   0  0  0  0  0  0  0  0  0  0  0  0
   -1.8227   -1.6354   -0.8625 H   0  0  0  0  0  0  0  0  0  0  0  0
   -3.0704   -2.4027    0.0859 H   0  0  0  0  0  0  0  0  0  0  0  0
   -4.5253   -0.9618    1.6779 H   0  0  0  0  0  0  0  0  0  0  0  0
   -4.1815    0.7694    1.7290 H   0  0  0  0  0  0  0  0  0  0  0  0
   -3.4880   -0.3343   -2.1380 H   0  0  0  0  0  0  0  0  0  0  0  0
   -3.8102   -2.0726   -2.2305 H   0  0  0  0  0  0  0  0  0  0  0  0
   -6.1790    0.2688    0.3364 H   0  0  0  0  0  0  0  0  0  0  0  0
   -4.9044    1.0657   -0.5986 H   0  0  0  0  0  0  0  0  0  0  0  0
    1.6069   -3.9264    1.6474 H   0  0  0  0  0  0  0  0  0  0  0  0
    3.6450    1.4587   -1.8321 H   0  0  0  0  0  0  0  0  0  0  0  0
    3.8079   -3.9798    0.4757 H   0  0  0  0  0  0  0  0  0  0  0  0
    5.4062   -2.3645   -1.1231 H   0  0  0  0  0  0  0  0  0  0  0  0
   -0.8967    4.6570    0.2262 H   0  0  0  0  0  0  0  0  0  0  0  0
   -0.9810    2.9362   -0.0371 H   0  0  0  0  0  0  0  0  0  0  0  0
   -0.1895    3.5875    1.4341 H   0  0  0  0  0  0  0  0  0  0  0  0
    2.6081    5.2346   -0.6778 H   0  0  0  0  0  0  0  0  0  0  0  0
    1.0241    5.9755   -0.4259 H   0  0  0  0  0  0  0  0  0  0  0  0
    1.8947    5.2670    0.9453 H   0  0  0  0  0  0  0  0  0  0  0  0
    5.4562   -0.1083   -2.1676 H   0  0  0  0  0  0  0  0  0  0  0  0
   -7.1344   -0.6639   -1.7012 H   0  0  0  0  0  0  0  0  0  0  0  0
   -5.8807    0.1145   -2.6912 H   0  0  0  0  0  0  0  0  0  0  0  0
   -6.1439   -1.6409   -2.7748 H   0  0  0  0  0  0  0  0  0  0  0  0
  1 13  2  0  0  0  0
  2  6  1  0  0  0  0
  2  7  1  0  0  0  0
  2 31  1  0  0  0  0
  3 13  1  0  0  0  0
  3 15  1  0  0  0  0
  3 16  1  0  0  0  0
  4 18  1  0  0  0  0
  4 19  1  0  0  0  0
  4 26  1  0  0  0  0
  5 17  1  0  0  0  0
  5 20  1  0  0  0  0
  5 45  1  0  0  0  0
  6  9  1  0  0  0  0
  6 10  1  0  0  0  0
  6 27  1  0  0  0  0
  7  8  1  0  0  0  0
  7 13  1  0  0  0  0
  7 28  1  0  0  0  0
  8 12  1  0  0  0  0
  8 29  1  0  0  0  0
  8 30  1  0  0  0  0
  9 11  2  0  0  0  0
  9 21  1  0  0  0  0
 10 14  1  0  0  0  0
 10 32  1  0  0  0  0
 10 33  1  0  0  0  0
 11 12  1  0  0  0  0
 11 17  1  0  0  0  0
 12 20  2  0  0  0  0
 14 23  1  0  0  0  0
 14 24  1  0  0  0  0
 14 34  1  0  0  0  0
 15 18  1  0  0  0  0
 15 35  1  0  0  0  0
 15 36  1  0  0  0  0
 16 19  1  0  0  0  0
 16 37  1  0  0  0  0
 16 38  1  0  0  0  0
 17 22  2  0  0  0  0
 18 39  1  0  0  0  0
 18 40  1  0  0  0  0
 19 41  1  0  0  0  0
 19 42  1  0  0  0  0
 20 43  1  0  0  0  0
 21 25  2  0  0  0  0
 21 44  1  0  0  0  0
 22 25  1  0  0  0  0
 22 46  1  0  0  0  0
 23 47  1  0  0  0  0
 23 48  1  0  0  0  0
 23 49  1  0  0  0  0
 24 50  1  0  0  0  0
 24 51  1  0  0  0  0
 24 52  1  0  0  0  0
 25 53  1  0  0  0  0
 26 54  1  0  0  0  0
 26 55  1  0  0  0  0
 26 56  1  0  0  0  0
M  END
> <PUBCHEM_COMPOUND_CID>
51137965

> <PUBCHEM_CONFORMER_RMSD>
0.8

> <PUBCHEM_CONFORMER_DIVERSEORDER>
3
39
38
44
36
2
15
42
10
35
29
37
8
25
12
43
46
22
27
20
6
11
1
26
16
7
19
30
14
31
17
13
33
45
9
4
47
24
28
18
23
5
21
40
41
32
34

> <PUBCHEM_MMFF94_PARTIAL_CHARGES>
27
1 -0.57
12 -0.18
13 0.57
15 0.3
16 0.3
17 -0.15
18 0.27
19 0.27
2 -0.9
20 -0.3
21 -0.15
22 -0.15
25 -0.15
26 0.27
3 -0.66
31 0.36
4 -0.81
43 0.15
44 0.15
45 0.27
46 0.15
5 0.03
53 0.15
6 0.41
7 0.33
8 0.18
9 -0.14

> <PUBCHEM_EFFECTIVE_ROTOR_COUNT>
6

> <PUBCHEM_PHARMACOPHORE_FEATURES>
11
1 1 acceptor
1 2 cation
1 2 donor
1 4 cation
1 5 cation
1 5 donor
3 14 23 24 hydrophobe
5 5 11 12 17 20 rings
6 3 4 15 16 18 19 rings
6 9 11 17 21 22 25 rings
7 2 6 7 8 9 11 12 rings

> <PUBCHEM_HEAVY_ATOM_COUNT>
26

> <PUBCHEM_ATOM_DEF_STEREO_COUNT>
2

> <PUBCHEM_ATOM_UDEF_STEREO_COUNT>
0

> <PUBCHEM_BOND_DEF_STEREO_COUNT>
0

> <PUBCHEM_BOND_UDEF_STEREO_COUNT>
0

> <PUBCHEM_ISOTOPIC_ATOM_COUNT>
0

> <PUBCHEM_COMPONENT_COUNT>
1

> <PUBCHEM_CACTVS_TAUTO_COUNT>
1

> <PUBCHEM_CONFORMER_ID>
030C4DAD00000003

> <PUBCHEM_MMFF94_ENERGY>
61.9766

> <PUBCHEM_FEATURE_SELFOVERLAP>
55.952

> <PUBCHEM_SHAPE_FINGERPRINT>
10693767 8 18343301453187001470
10930396 42 18191564524576621688
11578080 2 17986652797697050920
12553582 1 18337400361200036098
12769317 202 18041281057928010014
12788726 201 17975413508048454688
13009979 54 17846510227020940811
13134695 92 18407763624956965862
13140716 1 18116742723566736090
13540713 5 17464833272949076186
13692114 37 17329694436813440321
13757389 114 16896247111059293782
13911987 19 18042710414987045022
14537116 161 17827882228589524253
14681490 219 18408606941717425052
15183329 4 18272082757183418709
15210252 30 17749116590676179428
15439362 3 18122350339399167620
16988056 13 18260819440919467389
17349148 13 17632577150204031143
1813 80 18201433640918098335
20626108 58 17917986192113536559
221357 26 18261385625356976973
22289505 5 18113894923076629991
23522609 53 17772772687423409745
23559900 14 18338797939194394569
238 59 18193565681696241362
24771293 8 18272369802564459392
25222932 49 15621972993198800103
3004659 81 17989202664420370479
4017518 198 17698445761363281220
4353968 344 18194973938246083438
46194498 28 17096952345396863903
463206 1 18335991921080502298
474 4 18194679504123652505
59682541 52 18189035565642750247
6004065 56 18267862959867189984
6438754 60 18411412904434676121
7164475 11 18120938296254772394
7471813 234 18263076613863248482
9981440 41 17476921723942554984

> <PUBCHEM_SHAPE_MULTIPOLES>
509.27
10.28
4.68
1.57
13.47
7
0.2
-6.11
6.33
-5.17
-0.54
1.21
-0.49
-1.22

> <PUBCHEM_SHAPE_SELFOVERLAP>
1086.129

> <PUBCHEM_SHAPE_VOLUME>
283.5

> <PUBCHEM_COORDINATE_TYPE>
2
5
10

$$$$
