40777893
  -OEChem-12032416173D

 50 51  0     1  0  0  0  0  0999 V2000
    3.2425   -2.7767    0.4033 S   0  0  0  0  0  0  0  0  0  0  0  0
    1.2625    0.6993   -0.8093 O   0  0  0  0  0  0  0  0  0  0  0  0
    1.3153    3.8284    0.9528 O   0  0  0  0  0  0  0  0  0  0  0  0
    2.6938    3.3243   -1.3740 O   0  0  0  0  0  0  0  0  0  0  0  0
   -3.4603   -0.9634   -2.1029 O   0  0  0  0  0  0  0  0  0  0  0  0
   -1.7098    1.0416   -1.2559 O   0  0  0  0  0  0  0  0  0  0  0  0
    3.3026   -3.9610   -0.4309 O   0  0  0  0  0  0  0  0  0  0  0  0
    2.2380   -2.6509    1.4418 O   0  0  0  0  0  0  0  0  0  0  0  0
   -2.7533    0.2638    0.6575 N   0  0  0  0  0  0  0  0  0  0  0  0
    3.2115   -1.3769   -0.6086 N   0  0  0  0  0  0  0  0  0  0  0  0
    0.5944    1.7645   -0.1107 C   0  0  2  0  0  0  0  0  0  0  0  0
    1.6815    2.4978    0.6565 C   0  0  1  0  0  0  0  0  0  0  0  0
    2.8503    2.3960   -0.3015 C   0  0  1  0  0  0  0  0  0  0  0  0
    2.6781    0.9894   -0.8641 C   0  0  1  0  0  0  0  0  0  0  0  0
   -4.0377   -0.0540    0.0294 C   0  0  2  0  0  0  0  0  0  0  0  0
   -0.4899    1.1890    0.7828 C   0  0  0  0  0  0  0  0  0  0  0  0
   -4.9904   -0.2239    1.2155 C   0  0  0  0  0  0  0  0  0  0  0  0
   -2.7858   -0.0037    2.0932 C   0  0  0  0  0  0  0  0  0  0  0  0
   -4.0865   -0.7587    2.3202 C   0  0  0  0  0  0  0  0  0  0  0  0
   -1.7004    0.8310   -0.0420 C   0  0  0  0  0  0  0  0  0  0  0  0
    3.4030   -0.0720   -0.0480 C   0  0  0  0  0  0  0  0  0  0  0  0
   -3.9449   -1.3190   -0.8217 C   0  0  0  0  0  0  0  0  0  0  0  0
    4.8316   -2.5689    1.1737 C   0  0  0  0  0  0  0  0  0  0  0  0
   -3.3463   -2.0962   -2.9571 C   0  0  0  0  0  0  0  0  0  0  0  0
    0.1658    2.4439   -0.8592 H   0  0  0  0  0  0  0  0  0  0  0  0
    1.9123    1.9769    1.5936 H   0  0  0  0  0  0  0  0  0  0  0  0
    3.8181    2.5876    0.1705 H   0  0  0  0  0  0  0  0  0  0  0  0
    2.9804    0.9291   -1.9162 H   0  0  0  0  0  0  0  0  0  0  0  0
   -4.3417    0.7941   -0.5959 H   0  0  0  0  0  0  0  0  0  0  0  0
   -0.7974    1.9279    1.5309 H   0  0  0  0  0  0  0  0  0  0  0  0
   -0.1239    0.2883    1.2872 H   0  0  0  0  0  0  0  0  0  0  0  0
   -5.8439   -0.8766    1.0113 H   0  0  0  0  0  0  0  0  0  0  0  0
   -5.3819    0.7564    1.5155 H   0  0  0  0  0  0  0  0  0  0  0  0
   -2.7870    0.9589    2.6157 H   0  0  0  0  0  0  0  0  0  0  0  0
   -1.9101   -0.5792    2.4050 H   0  0  0  0  0  0  0  0  0  0  0  0
   -4.4954   -0.5995    3.3217 H   0  0  0  0  0  0  0  0  0  0  0  0
   -3.9271   -1.8348    2.1829 H   0  0  0  0  0  0  0  0  0  0  0  0
    3.0275   -0.0594    0.9811 H   0  0  0  0  0  0  0  0  0  0  0  0
    4.4744    0.1542   -0.0227 H   0  0  0  0  0  0  0  0  0  0  0  0
   -4.9407   -1.7609   -0.9450 H   0  0  0  0  0  0  0  0  0  0  0  0
   -3.2837   -2.0637   -0.3623 H   0  0  0  0  0  0  0  0  0  0  0  0
    2.0944    4.2666    1.3355 H   0  0  0  0  0  0  0  0  0  0  0  0
    3.4441    3.1977   -1.9797 H   0  0  0  0  0  0  0  0  0  0  0  0
    3.6220   -1.5003   -1.5437 H   0  0  0  0  0  0  0  0  0  0  0  0
    5.0167   -3.4464    1.7977 H   0  0  0  0  0  0  0  0  0  0  0  0
    5.5968   -2.5036    0.3979 H   0  0  0  0  0  0  0  0  0  0  0  0
    4.8232   -1.6745    1.7983 H   0  0  0  0  0  0  0  0  0  0  0  0
   -2.9697   -1.7585   -3.9263 H   0  0  0  0  0  0  0  0  0  0  0  0
   -4.3240   -2.5645   -3.1053 H   0  0  0  0  0  0  0  0  0  0  0  0
   -2.6394   -2.8200   -2.5401 H   0  0  0  0  0  0  0  0  0  0  0  0
  1  7  2  0  0  0  0
  1  8  2  0  0  0  0
  1 10  1  0  0  0  0
  1 23  1  0  0  0  0
  2 11  1  0  0  0  0
  2 14  1  0  0  0  0
  3 12  1  0  0  0  0
  3 42  1  0  0  0  0
  4 13  1  0  0  0  0
  4 43  1  0  0  0  0
  5 22  1  0  0  0  0
  5 24  1  0  0  0  0
  6 20  2  0  0  0  0
  9 15  1  0  0  0  0
  9 18  1  0  0  0  0
  9 20  1  0  0  0  0
 10 21  1  0  0  0  0
 10 44  1  0  0  0  0
 11 12  1  0  0  0  0
 11 16  1  0  0  0  0
 11 25  1  0  0  0  0
 12 13  1  0  0  0  0
 12 26  1  0  0  0  0
 13 14  1  0  0  0  0
 13 27  1  0  0  0  0
 14 21  1  0  0  0  0
 14 28  1  0  0  0  0
 15 17  1  0  0  0  0
 15 22  1  0  0  0  0
 15 29  1  0  0  0  0
 16 20  1  0  0  0  0
 16 30  1  0  0  0  0
 16 31  1  0  0  0  0
 17 19  1  0  0  0  0
 17 32  1  0  0  0  0
 17 33  1  0  0  0  0
 18 19  1  0  0  0  0
 18 34  1  0  0  0  0
 18 35  1  0  0  0  0
 19 36  1  0  0  0  0
 19 37  1  0  0  0  0
 21 38  1  0  0  0  0
 21 39  1  0  0  0  0
 22 40  1  0  0  0  0
 22 41  1  0  0  0  0
 23 45  1  0  0  0  0
 23 46  1  0  0  0  0
 23 47  1  0  0  0  0
 24 48  1  0  0  0  0
 24 49  1  0  0  0  0
 24 50  1  0  0  0  0
M  END
> <PUBCHEM_COMPOUND_CID>
40777893

> <PUBCHEM_CONFORMER_RMSD>
1

> <PUBCHEM_CONFORMER_DIVERSEORDER>
1
54
45
78
77
71
88
17
94
72
86
27
66
22
73
69
90
40
93
11
67
87
110
79
84
82
65
60
116
46
118
28
42
105
92
13
49
9
102
8
85
59
115
99
47
95
61
91
24
50
48
31
104
103
106
4
34
81
74
97
117
36
14
62
21
76
52
55
43
68
23
111
32
108
112
83
57
41
29
26
10
5
63
3
12
6
30
109
75
38
89
101
114
18
119
98
44
96
80
19
35
100
56
113
37
51
58
70
33
64
53
7
16
15
107
39
2
25
20

> <PUBCHEM_MMFF94_PARTIAL_CHARGES>
25
1 1.33
10 -0.91
11 0.28
12 0.28
13 0.28
14 0.28
15 0.3
16 0.06
18 0.3
2 -0.56
20 0.57
21 0.36
22 0.28
23 0.11
24 0.28
3 -0.68
4 -0.68
42 0.4
43 0.4
44 0.42
5 -0.56
6 -0.57
7 -0.65
8 -0.65
9 -0.66

> <PUBCHEM_EFFECTIVE_ROTOR_COUNT>
10

> <PUBCHEM_PHARMACOPHORE_FEATURES>
12
1 10 donor
1 2 acceptor
1 3 acceptor
1 3 donor
1 4 acceptor
1 4 donor
1 5 acceptor
1 6 acceptor
1 7 acceptor
1 8 acceptor
5 2 11 12 13 14 rings
5 9 15 17 18 19 rings

> <PUBCHEM_HEAVY_ATOM_COUNT>
24

> <PUBCHEM_ATOM_DEF_STEREO_COUNT>
5

> <PUBCHEM_ATOM_UDEF_STEREO_COUNT>
0

> <PUBCHEM_BOND_DEF_STEREO_COUNT>
0

> <PUBCHEM_BOND_UDEF_STEREO_COUNT>
0

> <PUBCHEM_ISOTOPIC_ATOM_COUNT>
0

> <PUBCHEM_COMPONENT_COUNT>
1

> <PUBCHEM_CACTVS_TAUTO_COUNT>
1

> <PUBCHEM_CONFORMER_ID>
026E38A500000001

> <PUBCHEM_MMFF94_ENERGY>
53.5076

> <PUBCHEM_FEATURE_SELFOVERLAP>
60.934

> <PUBCHEM_SHAPE_FINGERPRINT>
12107183 9 18052276011440618849
12553582 1 18341056207519374086
13533116 47 18338249240654546825
13583140 156 18126300850934499137
14251757 17 17240766146642730507
14844126 61 17835788708518086690
14848160 33 18260832557733179714
14910302 57 16950285135209712595
15537594 2 18341626913909276054
17138139 8 17339826883049577758
17818456 19 17915190018143750545
1813 80 18198914616797593738
18681886 176 16199322047317980692
20511986 3 17917424376021107265
20645477 70 18113899411343756472
20693207 138 17240490199621278003
20775530 9 18192147105949768002
21315759 227 17749115460788661034
21421861 104 18269854059070663384
21796203 349 18194430856083269010
235170 7 16588034527546804206
23559900 14 17748830726052727541
312425 83 14129914544118488858
345986 75 18058461927649798424
46194498 28 16443644487470776414
463206 1 18409449189273393090
59025328 239 18052220073248069765
59682541 52 18193530420874585103
613672 6 18190453857900828306
7064713 232 17131554929748081719

> <PUBCHEM_SHAPE_MULTIPOLES>
446.71
10.01
4.2
2.11
4.04
0.2
-0.6
6.79
1.37
-7.14
-0.19
2.99
1.11
-2.3

> <PUBCHEM_SHAPE_SELFOVERLAP>
891.557

> <PUBCHEM_SHAPE_VOLUME>
265.9

> <PUBCHEM_COORDINATE_TYPE>
2
5
10

$$$$
