45783409
  -OEChem-12032416203D

 52 55  0     1  0  0  0  0  0999 V2000
    5.5203    3.3685   -1.1421 Cl  0  0  0  0  0  0  0  0  0  0  0  0
   -1.2929   -2.7672   -1.3438 O   0  0  0  0  0  0  0  0  0  0  0  0
   -1.9439    1.4695    0.4272 O   0  0  0  0  0  0  0  0  0  0  0  0
   -0.0715    1.9522    2.4506 O   0  0  0  0  0  0  0  0  0  0  0  0
    1.6457   -1.8802    0.3669 N   0  0  1  0  0  0  0  0  0  0  0  0
   -1.4113   -1.1686    0.2206 N   0  0  0  0  0  0  0  0  0  0  0  0
   -2.4396   -2.0186   -1.6379 N   0  0  0  0  0  0  0  0  0  0  0  0
   -4.1256    2.1412    0.0866 N   0  0  0  0  0  0  0  0  0  0  0  0
    0.5223   -2.8353    0.2915 C   0  0  1  0  0  0  0  0  0  0  0  0
    0.3672   -3.3710    1.7269 C   0  0  0  0  0  0  0  0  0  0  0  0
    1.4829   -2.7076    2.5216 C   0  0  0  0  0  0  0  0  0  0  0  0
    2.5013   -2.3341    1.4634 C   0  0  0  0  0  0  0  0  0  0  0  0
    2.3796   -1.7563   -0.8860 C   0  0  0  0  0  0  0  0  0  0  0  0
   -0.7473   -2.2004   -0.2359 C   0  0  0  0  0  0  0  0  0  0  0  0
    3.1663   -0.4743   -0.9506 C   0  0  0  0  0  0  0  0  0  0  0  0
    2.5820    0.6761   -1.4808 C   0  0  0  0  0  0  0  0  0  0  0  0
    4.4789   -0.4366   -0.4804 C   0  0  0  0  0  0  0  0  0  0  0  0
   -2.4410   -1.0954   -0.6717 C   0  0  0  0  0  0  0  0  0  0  0  0
    3.3105    1.8641   -1.5408 C   0  0  0  0  0  0  0  0  0  0  0  0
    5.2075    0.7514   -0.5404 C   0  0  0  0  0  0  0  0  0  0  0  0
   -3.4566   -0.0877   -0.5688 C   0  0  0  0  0  0  0  0  0  0  0  0
    4.6231    1.9017   -1.0706 C   0  0  0  0  0  0  0  0  0  0  0  0
   -3.2001    1.1626   -0.0295 C   0  0  0  0  0  0  0  0  0  0  0  0
   -4.7460   -0.3506   -1.0180 C   0  0  0  0  0  0  0  0  0  0  0  0
   -5.7255    0.6309   -0.9155 C   0  0  0  0  0  0  0  0  0  0  0  0
   -5.3675    1.8490   -0.3606 C   0  0  0  0  0  0  0  0  0  0  0  0
   -1.7611    2.7729    0.9663 C   0  0  0  0  0  0  0  0  0  0  0  0
   -0.3267    2.9170    1.4370 C   0  0  0  0  0  0  0  0  0  0  0  0
    1.2691    2.0269    2.9148 C   0  0  0  0  0  0  0  0  0  0  0  0
    0.7877   -3.6859   -0.3526 H   0  0  0  0  0  0  0  0  0  0  0  0
   -0.6090   -3.1619    2.1775 H   0  0  0  0  0  0  0  0  0  0  0  0
    0.5117   -4.4583    1.7310 H   0  0  0  0  0  0  0  0  0  0  0  0
    1.8964   -3.3708    3.2871 H   0  0  0  0  0  0  0  0  0  0  0  0
    1.1011   -1.8076    3.0197 H   0  0  0  0  0  0  0  0  0  0  0  0
    3.0971   -3.2135    1.1880 H   0  0  0  0  0  0  0  0  0  0  0  0
    3.1686   -1.5502    1.8331 H   0  0  0  0  0  0  0  0  0  0  0  0
    1.6810   -1.7495   -1.7342 H   0  0  0  0  0  0  0  0  0  0  0  0
    3.0347   -2.6190   -1.0692 H   0  0  0  0  0  0  0  0  0  0  0  0
    1.5586    0.6613   -1.8466 H   0  0  0  0  0  0  0  0  0  0  0  0
    4.9488   -1.3264   -0.0701 H   0  0  0  0  0  0  0  0  0  0  0  0
    2.8415    2.7531   -1.9546 H   0  0  0  0  0  0  0  0  0  0  0  0
    6.2296    0.7659   -0.1709 H   0  0  0  0  0  0  0  0  0  0  0  0
   -5.0184   -1.3124   -1.4454 H   0  0  0  0  0  0  0  0  0  0  0  0
   -6.7378    0.4479   -1.2574 H   0  0  0  0  0  0  0  0  0  0  0  0
   -6.0947    2.6477   -0.2578 H   0  0  0  0  0  0  0  0  0  0  0  0
   -2.4315    2.9105    1.8239 H   0  0  0  0  0  0  0  0  0  0  0  0
   -1.9674    3.5327    0.2033 H   0  0  0  0  0  0  0  0  0  0  0  0
    0.3572    2.7394    0.5986 H   0  0  0  0  0  0  0  0  0  0  0  0
   -0.1616    3.9250    1.8332 H   0  0  0  0  0  0  0  0  0  0  0  0
    1.9692    1.8199    2.0993 H   0  0  0  0  0  0  0  0  0  0  0  0
    1.4723    3.0116    3.3465 H   0  0  0  0  0  0  0  0  0  0  0  0
    1.4070    1.2695    3.6912 H   0  0  0  0  0  0  0  0  0  0  0  0
  1 22  1  0  0  0  0
  2  7  1  0  0  0  0
  2 14  1  0  0  0  0
  3 23  1  0  0  0  0
  3 27  1  0  0  0  0
  4 28  1  0  0  0  0
  4 29  1  0  0  0  0
  5  9  1  0  0  0  0
  5 12  1  0  0  0  0
  5 13  1  0  0  0  0
  6 14  2  0  0  0  0
  6 18  1  0  0  0  0
  7 18  2  0  0  0  0
  8 23  1  0  0  0  0
  8 26  2  0  0  0  0
  9 10  1  0  0  0  0
  9 14  1  0  0  0  0
  9 30  1  0  0  0  0
 10 11  1  0  0  0  0
 10 31  1  0  0  0  0
 10 32  1  0  0  0  0
 11 12  1  0  0  0  0
 11 33  1  0  0  0  0
 11 34  1  0  0  0  0
 12 35  1  0  0  0  0
 12 36  1  0  0  0  0
 13 15  1  0  0  0  0
 13 37  1  0  0  0  0
 13 38  1  0  0  0  0
 15 16  2  0  0  0  0
 15 17  1  0  0  0  0
 16 19  1  0  0  0  0
 16 39  1  0  0  0  0
 17 20  2  0  0  0  0
 17 40  1  0  0  0  0
 18 21  1  0  0  0  0
 19 22  2  0  0  0  0
 19 41  1  0  0  0  0
 20 22  1  0  0  0  0
 20 42  1  0  0  0  0
 21 23  2  0  0  0  0
 21 24  1  0  0  0  0
 24 25  2  0  0  0  0
 24 43  1  0  0  0  0
 25 26  1  0  0  0  0
 25 44  1  0  0  0  0
 26 45  1  0  0  0  0
 27 28  1  0  0  0  0
 27 46  1  0  0  0  0
 27 47  1  0  0  0  0
 28 48  1  0  0  0  0
 28 49  1  0  0  0  0
 29 50  1  0  0  0  0
 29 51  1  0  0  0  0
 29 52  1  0  0  0  0
M  END
> <PUBCHEM_COMPOUND_CID>
45783409

> <PUBCHEM_CONFORMER_RMSD>
1

> <PUBCHEM_CONFORMER_DIVERSEORDER>
1
69
57
127
121
53
32
55
2
52
46
37
82
87
22
48
36
80
75
77
96
97
60
117
102
19
28
115
62
126
43
42
50
129
34
93
88
120
26
110
39
59
64
70
107
89
68
83
91
47
90
128
86
63
79
113
12
61
125
11
116
66
58
84
119
104
105
18
99
49
14
23
35
124
122
51
108
123
41
5
114
4
13
103
85
109
3
54
95
25
7
40
112
27
65
31
100
73
17
78
118
72
10
111
24
16
21
30
101
130
92
71
94
38
81
44
29
20
106
74
76
33
56
98
45
15
8
67
6
9

> <PUBCHEM_MMFF94_PARTIAL_CHARGES>
34
1 -0.18
12 0.27
13 0.41
14 0.3
15 -0.14
16 -0.15
17 -0.15
18 0.46
19 -0.15
2 -0.02
20 -0.15
21 0.05
22 0.18
23 0.39
24 -0.15
25 -0.15
26 0.16
27 0.28
28 0.28
29 0.28
3 -0.36
39 0.15
4 -0.56
40 0.15
41 0.15
42 0.15
43 0.15
44 0.15
45 0.15
5 -0.81
6 -0.57
7 -0.41
8 -0.62
9 0.45

> <PUBCHEM_EFFECTIVE_ROTOR_COUNT>
9

> <PUBCHEM_PHARMACOPHORE_FEATURES>
9
1 3 acceptor
1 4 acceptor
1 5 cation
1 8 acceptor
3 6 7 18 cation
5 2 6 7 14 18 rings
5 5 9 10 11 12 rings
6 15 16 17 19 20 22 rings
6 8 21 23 24 25 26 rings

> <PUBCHEM_HEAVY_ATOM_COUNT>
29

> <PUBCHEM_ATOM_DEF_STEREO_COUNT>
1

> <PUBCHEM_ATOM_UDEF_STEREO_COUNT>
0

> <PUBCHEM_BOND_DEF_STEREO_COUNT>
0

> <PUBCHEM_BOND_UDEF_STEREO_COUNT>
0

> <PUBCHEM_ISOTOPIC_ATOM_COUNT>
0

> <PUBCHEM_COMPONENT_COUNT>
1

> <PUBCHEM_CACTVS_TAUTO_COUNT>
1

> <PUBCHEM_CONFORMER_ID>
02BA997100000001

> <PUBCHEM_MMFF94_ENERGY>
64.63

> <PUBCHEM_FEATURE_SELFOVERLAP>
45.725

> <PUBCHEM_SHAPE_FINGERPRINT>
12166972 35 18120363259720165547
12788726 201 17916587527329006569
13009979 54 17621873197700829483
13617811 41 18336816564125024861
14117953 113 16753528284885126653
14790565 3 17986405386512321553
14931854 50 18343587343099708372
14932702 115 17911255115204932788
15001296 14 18336548226676935716
15142526 21 18040719181490020611
15297060 5 17271729377733752715
15420108 30 17332252992508301488
17138139 8 18272081746827140212
18608769 82 18194687188469030319
19319366 153 18335697226416130787
20511986 3 18339912766728815629
20642791 35 18060408132572852297
21814621 53 16518228562695221561
22122407 14 17899138213846464869
23559900 14 17555165853725457503
23845131 108 17603587439210869595
394222 165 18188207611157915138
44880168 125 12685353211405203712
469060 322 17607836050718199505
474 4 18113617867568694518
474144 1 18263352595138658642
5081480 168 16629967740930500723
5895379 119 17984704407542645646
6823239 73 17346022450683195761
7288768 16 17822577230175478582
9981440 41 18192434293539015474

> <PUBCHEM_SHAPE_MULTIPOLES>
561.14
11.09
4.56
2.17
2.05
0.91
1.73
-9.24
-6.23
-2.13
1.75
-0.92
-0.19
-2.28

> <PUBCHEM_SHAPE_SELFOVERLAP>
1193.254

> <PUBCHEM_SHAPE_VOLUME>
315.6

> <PUBCHEM_COORDINATE_TYPE>
2
5
10

$$$$
