75367813
  -OEChem-12032416403D

 44 46  0     1  0  0  0  0  0999 V2000
    0.8734   -3.7555   -0.7397 O   0  0  0  0  0  0  0  0  0  0  0  0
   -1.5468   -1.0912   -0.3166 O   0  0  0  0  0  0  0  0  0  0  0  0
    4.3687   -0.6598    0.4870 O   0  0  0  0  0  0  0  0  0  0  0  0
    2.0802   -1.1620    0.5410 N   0  0  0  0  0  0  0  0  0  0  0  0
   -0.3411   -1.7796    0.0184 C   0  0  2  0  0  0  0  0  0  0  0  0
    0.6941   -0.7089    0.3746 C   0  0  0  0  0  0  0  0  0  0  0  0
    2.3184   -2.5740    0.8445 C   0  0  0  0  0  0  0  0  0  0  0  0
    0.0784   -2.6521   -1.1629 C   0  0  0  0  0  0  0  0  0  0  0  0
    2.2198   -3.4286   -0.4127 C   0  0  0  0  0  0  0  0  0  0  0  0
    3.1913   -0.3163    0.3878 C   0  0  0  0  0  0  0  0  0  0  0  0
   -2.2532   -0.6936    0.8477 C   0  0  0  0  0  0  0  0  0  0  0  0
    2.9514    1.1033    0.0838 C   0  0  0  0  0  0  0  0  0  0  0  0
   -3.5070    0.0225    0.4394 C   0  0  0  0  0  0  0  0  0  0  0  0
    2.8114    2.0251    1.1212 C   0  0  0  0  0  0  0  0  0  0  0  0
    2.8656    1.5272   -1.2422 C   0  0  0  0  0  0  0  0  0  0  0  0
   -3.4921    1.4048    0.2540 C   0  0  0  0  0  0  0  0  0  0  0  0
   -4.6876   -0.6945    0.2454 C   0  0  0  0  0  0  0  0  0  0  0  0
    2.5854    3.3711    0.8326 C   0  0  0  0  0  0  0  0  0  0  0  0
    2.6398    2.8729   -1.5310 C   0  0  0  0  0  0  0  0  0  0  0  0
   -4.6580    2.0704   -0.1254 C   0  0  0  0  0  0  0  0  0  0  0  0
   -5.8533   -0.0293   -0.1340 C   0  0  0  0  0  0  0  0  0  0  0  0
    2.4997    3.7949   -0.4935 C   0  0  0  0  0  0  0  0  0  0  0  0
   -5.8385    1.3532   -0.3193 C   0  0  0  0  0  0  0  0  0  0  0  0
   -0.5172   -2.4349    0.8818 H   0  0  0  0  0  0  0  0  0  0  0  0
    0.6540    0.0854   -0.3780 H   0  0  0  0  0  0  0  0  0  0  0  0
    0.4345   -0.2276    1.3240 H   0  0  0  0  0  0  0  0  0  0  0  0
    3.3268   -2.6796    1.2589 H   0  0  0  0  0  0  0  0  0  0  0  0
    1.6131   -2.8920    1.6195 H   0  0  0  0  0  0  0  0  0  0  0  0
   -0.8163   -3.0763   -1.6330 H   0  0  0  0  0  0  0  0  0  0  0  0
    0.5908   -2.0775   -1.9443 H   0  0  0  0  0  0  0  0  0  0  0  0
    2.7116   -2.9617   -1.2741 H   0  0  0  0  0  0  0  0  0  0  0  0
    2.7248   -4.3825   -0.2270 H   0  0  0  0  0  0  0  0  0  0  0  0
   -2.5117   -1.5728    1.4515 H   0  0  0  0  0  0  0  0  0  0  0  0
   -1.6550   -0.0282    1.4788 H   0  0  0  0  0  0  0  0  0  0  0  0
    2.8761    1.7051    2.1579 H   0  0  0  0  0  0  0  0  0  0  0  0
    2.9728    0.8169   -2.0579 H   0  0  0  0  0  0  0  0  0  0  0  0
   -2.5778    1.9740    0.3997 H   0  0  0  0  0  0  0  0  0  0  0  0
   -4.7113   -1.7721    0.3846 H   0  0  0  0  0  0  0  0  0  0  0  0
    2.4760    4.0888    1.6403 H   0  0  0  0  0  0  0  0  0  0  0  0
    2.5727    3.2030   -2.5635 H   0  0  0  0  0  0  0  0  0  0  0  0
   -4.6463    3.1466   -0.2704 H   0  0  0  0  0  0  0  0  0  0  0  0
   -6.7725   -0.5876   -0.2856 H   0  0  0  0  0  0  0  0  0  0  0  0
    2.3237    4.8427   -0.7184 H   0  0  0  0  0  0  0  0  0  0  0  0
   -6.7462    1.8712   -0.6150 H   0  0  0  0  0  0  0  0  0  0  0  0
  1  8  1  0  0  0  0
  1  9  1  0  0  0  0
  2  5  1  0  0  0  0
  2 11  1  0  0  0  0
  3 10  2  0  0  0  0
  4  6  1  0  0  0  0
  4  7  1  0  0  0  0
  4 10  1  0  0  0  0
  5  6  1  0  0  0  0
  5  8  1  0  0  0  0
  5 24  1  0  0  0  0
  6 25  1  0  0  0  0
  6 26  1  0  0  0  0
  7  9  1  0  0  0  0
  7 27  1  0  0  0  0
  7 28  1  0  0  0  0
  8 29  1  0  0  0  0
  8 30  1  0  0  0  0
  9 31  1  0  0  0  0
  9 32  1  0  0  0  0
 10 12  1  0  0  0  0
 11 13  1  0  0  0  0
 11 33  1  0  0  0  0
 11 34  1  0  0  0  0
 12 14  2  0  0  0  0
 12 15  1  0  0  0  0
 13 16  2  0  0  0  0
 13 17  1  0  0  0  0
 14 18  1  0  0  0  0
 14 35  1  0  0  0  0
 15 19  2  0  0  0  0
 15 36  1  0  0  0  0
 16 20  1  0  0  0  0
 16 37  1  0  0  0  0
 17 21  2  0  0  0  0
 17 38  1  0  0  0  0
 18 22  2  0  0  0  0
 18 39  1  0  0  0  0
 19 22  1  0  0  0  0
 19 40  1  0  0  0  0
 20 23  2  0  0  0  0
 20 41  1  0  0  0  0
 21 23  1  0  0  0  0
 21 42  1  0  0  0  0
 22 43  1  0  0  0  0
 23 44  1  0  0  0  0
M  END
> <PUBCHEM_COMPOUND_CID>
75367813

> <PUBCHEM_CONFORMER_RMSD>
0.8

> <PUBCHEM_CONFORMER_DIVERSEORDER>
1
48
11
33
119
42
12
77
4
18
115
28
103
41
84
29
39
95
17
80
118
36
19
58
89
62
53
74
14
60
113
46
79
81
45
55
54
111
68
98
20
51
112
15
82
43
107
83
13
21
7
61
6
52
73
2
38
3
114
69
75
108
97
67
91
9
65
10
24
85
109
57
27
59
22
47
32
31
86
8
94
110
116
78
26
37
117
96
87
121
76
34
72
102
105
56
71
101
30
44
66
40
23
63
90
106
99
49
104
5
64
16
50
25
70
120
88
93
100
35
92

> <PUBCHEM_MMFF94_PARTIAL_CHARGES>
33
1 -0.56
10 0.54
11 0.42
12 0.09
13 -0.14
14 -0.15
15 -0.15
16 -0.15
17 -0.15
18 -0.15
19 -0.15
2 -0.56
20 -0.15
21 -0.15
22 -0.15
23 -0.15
3 -0.57
35 0.15
36 0.15
37 0.15
38 0.15
39 0.15
4 -0.66
40 0.15
41 0.15
42 0.15
43 0.15
44 0.15
5 0.28
6 0.3
7 0.3
8 0.28
9 0.28

> <PUBCHEM_EFFECTIVE_ROTOR_COUNT>
6.4

> <PUBCHEM_PHARMACOPHORE_FEATURES>
6
1 1 acceptor
1 2 acceptor
1 3 acceptor
6 12 14 15 18 19 22 rings
6 13 16 17 20 21 23 rings
7 1 4 5 6 7 8 9 rings

> <PUBCHEM_HEAVY_ATOM_COUNT>
23

> <PUBCHEM_ATOM_DEF_STEREO_COUNT>
1

> <PUBCHEM_ATOM_UDEF_STEREO_COUNT>
0

> <PUBCHEM_BOND_DEF_STEREO_COUNT>
0

> <PUBCHEM_BOND_UDEF_STEREO_COUNT>
0

> <PUBCHEM_ISOTOPIC_ATOM_COUNT>
0

> <PUBCHEM_COMPONENT_COUNT>
1

> <PUBCHEM_CACTVS_TAUTO_COUNT>
1

> <PUBCHEM_CONFORMER_ID>
047E058500000001

> <PUBCHEM_MMFF94_ENERGY>
73.1614

> <PUBCHEM_FEATURE_SELFOVERLAP>
30.448

> <PUBCHEM_SHAPE_FINGERPRINT>
10483366 6 18263664926263087764
10937287 8 18122344837524150308
12173636 292 17980478180749877598
12293681 4 17183327435879903879
12403259 118 18336255846920932347
12403259 327 17385437709325036818
12633257 1 16733252555960684952
12925494 130 18265892468033744233
13583140 156 18114753655023133011
13878862 14 18116129131363745173
13965767 371 18044634615912212800
14251764 38 18335143055808268481
14251764 75 18195542595330306361
14468879 13 18116157851535519521
14955137 171 18410292480875451810
151778 21 18336550507336562517
15420108 30 18197473295246732002
15849732 13 18342735196598832810
1601671 61 18337110064819324546
17134986 127 18340211907174682134
17844677 252 18267029358613281779
17868525 174 17970897869659408553
18681886 176 18343295959928643242
20465049 17 18339943583435318038
20567600 299 18269548360452367153
20567600 9 18339375092689468965
21033648 144 18115014320745676605
21315763 129 18335979766897554459
21709351 56 18411694374979652999
21860390 5 18269276763836841967
23558518 356 18048868891194424434
23559900 14 18340765923817972883
245318 6 17751654375150763109
328310 1195 18116695349734453237
345986 75 16665973186149434594
4409770 3 16248293865642993695
474 4 18408604747331891515
5048184 11 18121503724024690820
513532 50 17988647337775398158
5312544 6 18339075007851248415
6443956 14 18339365137281914902
67856867 119 18410849954644889011
7288768 16 17388815576538804296
7808743 9 17689439708004912984

> <PUBCHEM_SHAPE_MULTIPOLES>
450.74
10.94
4.8
1.09
18.5
0.25
-0.17
-6.09
0.18
-5.6
-1.01
-0.8
-0.26
-0.24

> <PUBCHEM_SHAPE_SELFOVERLAP>
954.681

> <PUBCHEM_SHAPE_VOLUME>
248.4

> <PUBCHEM_COORDINATE_TYPE>
2
5
10

$$$$
