11885115
  -OEChem-12032416213D

 54 58  0     1  0  0  0  0  0999 V2000
   -1.1644   -1.9994    1.4325 O   0  0  0  0  0  0  0  0  0  0  0  0
    2.9241    0.8700    2.4874 O   0  0  0  0  0  0  0  0  0  0  0  0
   -6.7944    0.5464    0.4090 O   0  0  0  0  0  0  0  0  0  0  0  0
    3.4434   -0.3523    0.5612 N   0  0  0  0  0  0  0  0  0  0  0  0
    0.7153   -1.8617    0.0586 N   0  0  0  0  0  0  0  0  0  0  0  0
    3.0001   -2.7913    0.7527 C   0  0  1  0  0  0  0  0  0  0  0  0
    2.7421   -1.6687   -1.4235 C   0  0  2  0  0  0  0  0  0  0  0  0
    3.2354   -2.9463   -0.7460 C   0  0  0  0  0  0  0  0  0  0  0  0
    3.7732   -1.5746    1.2939 C   0  0  0  0  0  0  0  0  0  0  0  0
    1.4913   -2.6763    1.0054 C   0  0  0  0  0  0  0  0  0  0  0  0
    3.5501   -0.4622   -0.9030 C   0  0  0  0  0  0  0  0  0  0  0  0
    1.2663   -1.4433   -1.1552 C   0  0  0  0  0  0  0  0  0  0  0  0
    0.5039   -0.8070   -2.0587 C   0  0  0  0  0  0  0  0  0  0  0  0
   -0.6322   -1.6181    0.3886 C   0  0  0  0  0  0  0  0  0  0  0  0
    3.0140    0.7760    1.2643 C   0  0  0  0  0  0  0  0  0  0  0  0
   -1.4485   -0.8611   -0.6239 C   0  0  0  0  0  0  0  0  0  0  0  0
   -0.8724   -0.5088   -1.7828 C   0  0  0  0  0  0  0  0  0  0  0  0
    2.6067    1.9552    0.4930 C   0  0  0  0  0  0  0  0  0  0  0  0
   -2.8482   -0.4930   -0.3531 C   0  0  0  0  0  0  0  0  0  0  0  0
    1.2795    2.0999    0.0973 C   0  0  0  0  0  0  0  0  0  0  0  0
    3.5496    2.9243    0.1598 C   0  0  0  0  0  0  0  0  0  0  0  0
   -3.8811   -1.3548   -0.7230 C   0  0  0  0  0  0  0  0  0  0  0  0
   -3.1426    0.7185    0.2734 C   0  0  0  0  0  0  0  0  0  0  0  0
    0.8924    3.2213   -0.6365 C   0  0  0  0  0  0  0  0  0  0  0  0
    3.1625    4.0457   -0.5739 C   0  0  0  0  0  0  0  0  0  0  0  0
   -5.2070   -1.0055   -0.4668 C   0  0  0  0  0  0  0  0  0  0  0  0
   -4.4685    1.0678    0.5296 C   0  0  0  0  0  0  0  0  0  0  0  0
    1.8338    4.1942   -0.9721 C   0  0  0  0  0  0  0  0  0  0  0  0
   -5.5007    0.2058    0.1595 C   0  0  0  0  0  0  0  0  0  0  0  0
   -7.0238    1.7993    1.0524 C   0  0  0  0  0  0  0  0  0  0  0  0
    3.3715   -3.6803    1.2771 H   0  0  0  0  0  0  0  0  0  0  0  0
    2.9148   -1.7635   -2.5033 H   0  0  0  0  0  0  0  0  0  0  0  0
    2.7012   -3.8232   -1.1326 H   0  0  0  0  0  0  0  0  0  0  0  0
    4.3013   -3.1023   -0.9521 H   0  0  0  0  0  0  0  0  0  0  0  0
    3.5800   -1.4496    2.3645 H   0  0  0  0  0  0  0  0  0  0  0  0
    4.8519   -1.7349    1.1767 H   0  0  0  0  0  0  0  0  0  0  0  0
    1.0503   -3.6815    0.9592 H   0  0  0  0  0  0  0  0  0  0  0  0
    1.2999   -2.3096    2.0219 H   0  0  0  0  0  0  0  0  0  0  0  0
    4.6142   -0.5955   -1.1338 H   0  0  0  0  0  0  0  0  0  0  0  0
    3.2310    0.4553   -1.4035 H   0  0  0  0  0  0  0  0  0  0  0  0
    0.9117   -0.4586   -3.0019 H   0  0  0  0  0  0  0  0  0  0  0  0
   -1.4161    0.0422   -2.5446 H   0  0  0  0  0  0  0  0  0  0  0  0
    0.5358    1.3577    0.3697 H   0  0  0  0  0  0  0  0  0  0  0  0
    4.5872    2.8174    0.4647 H   0  0  0  0  0  0  0  0  0  0  0  0
   -3.6682   -2.3028   -1.2111 H   0  0  0  0  0  0  0  0  0  0  0  0
   -2.3480    1.4001    0.5678 H   0  0  0  0  0  0  0  0  0  0  0  0
   -0.1430    3.3380   -0.9430 H   0  0  0  0  0  0  0  0  0  0  0  0
    3.8956    4.8032   -0.8353 H   0  0  0  0  0  0  0  0  0  0  0  0
   -6.0070   -1.6810   -0.7572 H   0  0  0  0  0  0  0  0  0  0  0  0
   -4.6255    2.0229    1.0190 H   0  0  0  0  0  0  0  0  0  0  0  0
    1.5323    5.0676   -1.5427 H   0  0  0  0  0  0  0  0  0  0  0  0
   -6.6855    2.6372    0.4335 H   0  0  0  0  0  0  0  0  0  0  0  0
   -6.5868    1.8219    2.0565 H   0  0  0  0  0  0  0  0  0  0  0  0
   -8.1067    1.9075    1.1725 H   0  0  0  0  0  0  0  0  0  0  0  0
  1 14  2  0  0  0  0
  2 15  2  0  0  0  0
  3 29  1  0  0  0  0
  3 30  1  0  0  0  0
  4  9  1  0  0  0  0
  4 11  1  0  0  0  0
  4 15  1  0  0  0  0
  5 10  1  0  0  0  0
  5 12  1  0  0  0  0
  5 14  1  0  0  0  0
  6  8  1  0  0  0  0
  6  9  1  0  0  0  0
  6 10  1  0  0  0  0
  6 31  1  0  0  0  0
  7  8  1  0  0  0  0
  7 11  1  0  0  0  0
  7 12  1  0  0  0  0
  7 32  1  0  0  0  0
  8 33  1  0  0  0  0
  8 34  1  0  0  0  0
  9 35  1  0  0  0  0
  9 36  1  0  0  0  0
 10 37  1  0  0  0  0
 10 38  1  0  0  0  0
 11 39  1  0  0  0  0
 11 40  1  0  0  0  0
 12 13  2  0  0  0  0
 13 17  1  0  0  0  0
 13 41  1  0  0  0  0
 14 16  1  0  0  0  0
 15 18  1  0  0  0  0
 16 17  2  0  0  0  0
 16 19  1  0  0  0  0
 17 42  1  0  0  0  0
 18 20  2  0  0  0  0
 18 21  1  0  0  0  0
 19 22  2  0  0  0  0
 19 23  1  0  0  0  0
 20 24  1  0  0  0  0
 20 43  1  0  0  0  0
 21 25  2  0  0  0  0
 21 44  1  0  0  0  0
 22 26  1  0  0  0  0
 22 45  1  0  0  0  0
 23 27  2  0  0  0  0
 23 46  1  0  0  0  0
 24 28  2  0  0  0  0
 24 47  1  0  0  0  0
 25 28  1  0  0  0  0
 25 48  1  0  0  0  0
 26 29  2  0  0  0  0
 26 49  1  0  0  0  0
 27 29  1  0  0  0  0
 27 50  1  0  0  0  0
 28 51  1  0  0  0  0
 30 52  1  0  0  0  0
 30 53  1  0  0  0  0
 30 54  1  0  0  0  0
M  END
> <PUBCHEM_COMPOUND_CID>
11885115

> <PUBCHEM_CONFORMER_RMSD>
0.8

> <PUBCHEM_CONFORMER_DIVERSEORDER>
1
6
5
3
4
2
7

> <PUBCHEM_MMFF94_PARTIAL_CHARGES>
39
1 -0.57
10 0.3
11 0.3
12 -0.03
13 -0.15
14 0.62
15 0.54
16 -0.01
17 -0.15
18 0.09
19 0.03
2 -0.57
20 -0.15
21 -0.15
22 -0.15
23 -0.15
24 -0.15
25 -0.15
26 -0.15
27 -0.15
28 -0.15
29 0.08
3 -0.36
30 0.28
4 -0.66
41 0.15
42 0.15
43 0.15
44 0.15
45 0.15
46 0.15
47 0.15
48 0.15
49 0.15
5 -0.47
50 0.15
51 0.15
7 0.14
9 0.3

> <PUBCHEM_EFFECTIVE_ROTOR_COUNT>
5

> <PUBCHEM_PHARMACOPHORE_FEATURES>
8
1 1 acceptor
1 2 acceptor
1 3 acceptor
6 18 20 21 24 25 28 rings
6 19 22 23 26 27 29 rings
6 4 6 7 8 9 11 rings
6 5 12 13 14 16 17 rings
6 5 6 7 8 10 12 rings

> <PUBCHEM_HEAVY_ATOM_COUNT>
30

> <PUBCHEM_ATOM_DEF_STEREO_COUNT>
2

> <PUBCHEM_ATOM_UDEF_STEREO_COUNT>
0

> <PUBCHEM_BOND_DEF_STEREO_COUNT>
0

> <PUBCHEM_BOND_UDEF_STEREO_COUNT>
0

> <PUBCHEM_ISOTOPIC_ATOM_COUNT>
0

> <PUBCHEM_COMPONENT_COUNT>
1

> <PUBCHEM_CACTVS_TAUTO_COUNT>
1

> <PUBCHEM_CONFORMER_ID>
00B55A3B00000001

> <PUBCHEM_MMFF94_ENERGY>
98.6391

> <PUBCHEM_FEATURE_SELFOVERLAP>
42.192

> <PUBCHEM_SHAPE_FINGERPRINT>
10074138 170 15305873828252513507
10165383 225 17967542298275054294
10483366 6 18337689593911310436
10674148 151 18200039585741649148
10937287 8 17760928841609260772
11421498 54 17825673249088108402
11578080 2 18117580602365289827
12156800 1 14905405571640845408
12422481 6 17912046557575932754
12633257 1 17896859123403912154
12788726 201 17830749651334478502
133893 2 18127719130069805152
13965767 371 17772723105593223578
14251764 38 18265616657643129827
14849402 71 18335142007524602708
15163728 17 18046641271571193092
15238133 3 18408324363566862014
15420108 30 18057589053483901806
15439362 3 18194970862654015908
15475509 84 17396409516730735411
17818456 19 17846504677939395305
17899979 19 17630917983310890564
20691752 17 18113892767308768327
20715895 44 17916025656039870497
20739085 24 18337942463936246200
21033648 29 17313093147595462807
21475661 188 18337675320616230964
21859007 373 17677881350506883549
21860390 5 18413388748104263742
23559900 14 18343309149673235911
3411729 13 18341054107000746045
345986 75 17607233269217508826
397830 11 18115885130519582315
4058900 60 18044665432059786660
4409770 3 17114105465397885446
44280116 191 12887819249622691715
474 4 18338510966712318247
5104073 3 18336841848923608891
513532 50 17275109448598306020
5283268 108 18338794503421264260
5895379 119 17344650144397739169
6086070 43 17972850645713666639
9896288 288 17469611071282296728
9981440 41 17977949308495768633

> <PUBCHEM_SHAPE_MULTIPOLES>
589.82
11.58
4.49
1.58
25.64
4.1
-0.05
3.26
-3.14
-6.12
0.46
-0.97
-0.34
-1

> <PUBCHEM_SHAPE_SELFOVERLAP>
1304.017

> <PUBCHEM_SHAPE_VOLUME>
311.3

> <PUBCHEM_COORDINATE_TYPE>
2
5
10

$$$$
