75536681
  -OEChem-12032416303D

 46 48  0     1  0  0  0  0  0999 V2000
    4.4759   -1.3892    0.0236 S   0  0  0  0  0  0  0  0  0  0  0  0
    0.1202   -1.2457    1.3928 O   0  0  0  0  0  0  0  0  0  0  0  0
   -0.7154   -1.1182   -2.0988 O   0  0  0  0  0  0  0  0  0  0  0  0
    4.4986   -1.9055   -1.3318 O   0  0  0  0  0  0  0  0  0  0  0  0
    5.3137   -1.9867    1.0457 O   0  0  0  0  0  0  0  0  0  0  0  0
   -3.0131   -0.2271   -0.1488 N   0  0  0  0  0  0  0  0  0  0  0  0
    2.8697   -1.3428    0.5821 N   0  0  0  0  0  0  0  0  0  0  0  0
   -6.2836   -0.3711   -0.7780 N   0  0  0  0  0  0  0  0  0  0  0  0
   -1.8416   -1.0607    0.0665 C   0  0  1  0  0  0  0  0  0  0  0  0
   -0.6410   -0.6506   -0.7660 C   0  0  1  0  0  0  0  0  0  0  0  0
    0.4916   -1.3140    0.0059 C   0  0  1  0  0  0  0  0  0  0  0  0
   -1.2840   -0.9452    1.4757 C   0  0  0  0  0  0  0  0  0  0  0  0
    1.8352   -0.6374   -0.1995 C   0  0  0  0  0  0  0  0  0  0  0  0
   -4.2104   -0.8517    0.4010 C   0  0  0  0  0  0  0  0  0  0  0  0
   -5.4318    0.0057    0.2019 C   0  0  0  0  0  0  0  0  0  0  0  0
    4.8864    0.3289   -0.0409 C   0  0  0  0  0  0  0  0  0  0  0  0
   -5.6228    1.1133    1.0122 C   0  0  0  0  0  0  0  0  0  0  0  0
    5.4433    0.9550    1.0741 C   0  0  0  0  0  0  0  0  0  0  0  0
    4.6499    1.0593   -1.2054 C   0  0  0  0  0  0  0  0  0  0  0  0
   -6.7613    1.8836    0.8036 C   0  0  0  0  0  0  0  0  0  0  0  0
    5.7637    2.3118    1.0248 C   0  0  0  0  0  0  0  0  0  0  0  0
    4.9701    2.4159   -1.2549 C   0  0  0  0  0  0  0  0  0  0  0  0
   -7.3791    0.4020   -0.9514 C   0  0  0  0  0  0  0  0  0  0  0  0
   -7.6613    1.5279   -0.1949 C   0  0  0  0  0  0  0  0  0  0  0  0
    5.5271    3.0423   -0.1398 C   0  0  0  0  0  0  0  0  0  0  0  0
   -2.0742   -2.1095   -0.1665 H   0  0  0  0  0  0  0  0  0  0  0  0
   -0.5244    0.4403   -0.7800 H   0  0  0  0  0  0  0  0  0  0  0  0
    0.5750   -2.3764   -0.2587 H   0  0  0  0  0  0  0  0  0  0  0  0
   -1.3732    0.0709    1.8772 H   0  0  0  0  0  0  0  0  0  0  0  0
   -1.7613   -1.6361    2.1772 H   0  0  0  0  0  0  0  0  0  0  0  0
    1.7972    0.3981    0.1568 H   0  0  0  0  0  0  0  0  0  0  0  0
    2.0874   -0.6412   -1.2642 H   0  0  0  0  0  0  0  0  0  0  0  0
   -3.1439   -0.0879   -1.1511 H   0  0  0  0  0  0  0  0  0  0  0  0
    2.7019   -1.4005    1.5944 H   0  0  0  0  0  0  0  0  0  0  0  0
   -0.8193   -2.0846   -2.0785 H   0  0  0  0  0  0  0  0  0  0  0  0
   -4.0978   -1.0444    1.4752 H   0  0  0  0  0  0  0  0  0  0  0  0
   -4.3843   -1.8237   -0.0785 H   0  0  0  0  0  0  0  0  0  0  0  0
   -4.9150    1.3820    1.7892 H   0  0  0  0  0  0  0  0  0  0  0  0
    5.6286    0.4076    1.9939 H   0  0  0  0  0  0  0  0  0  0  0  0
    4.2144    0.5930   -2.0844 H   0  0  0  0  0  0  0  0  0  0  0  0
   -6.9471    2.7594    1.4180 H   0  0  0  0  0  0  0  0  0  0  0  0
    6.1954    2.8000    1.8936 H   0  0  0  0  0  0  0  0  0  0  0  0
    4.7851    2.9851   -2.1612 H   0  0  0  0  0  0  0  0  0  0  0  0
   -8.0491    0.0821   -1.7426 H   0  0  0  0  0  0  0  0  0  0  0  0
    5.7758    4.0988   -0.1781 H   0  0  0  0  0  0  0  0  0  0  0  0
   -8.5554    2.1136   -0.3752 H   0  0  0  0  0  0  0  0  0  0  0  0
  1  4  2  0  0  0  0
  1  5  2  0  0  0  0
  1  7  1  0  0  0  0
  1 16  1  0  0  0  0
  2 11  1  0  0  0  0
  2 12  1  0  0  0  0
  3 10  1  0  0  0  0
  3 35  1  0  0  0  0
  6  9  1  0  0  0  0
  6 14  1  0  0  0  0
  6 33  1  0  0  0  0
  7 13  1  0  0  0  0
  7 34  1  0  0  0  0
  8 15  1  0  0  0  0
  8 23  2  0  0  0  0
  9 10  1  0  0  0  0
  9 12  1  0  0  0  0
  9 26  1  0  0  0  0
 10 11  1  0  0  0  0
 10 27  1  0  0  0  0
 11 13  1  0  0  0  0
 11 28  1  0  0  0  0
 12 29  1  0  0  0  0
 12 30  1  0  0  0  0
 13 31  1  0  0  0  0
 13 32  1  0  0  0  0
 14 15  1  0  0  0  0
 14 36  1  0  0  0  0
 14 37  1  0  0  0  0
 15 17  2  0  0  0  0
 16 18  2  0  0  0  0
 16 19  1  0  0  0  0
 17 20  1  0  0  0  0
 17 38  1  0  0  0  0
 18 21  1  0  0  0  0
 18 39  1  0  0  0  0
 19 22  2  0  0  0  0
 19 40  1  0  0  0  0
 20 24  2  0  0  0  0
 20 41  1  0  0  0  0
 21 25  2  0  0  0  0
 21 42  1  0  0  0  0
 22 25  1  0  0  0  0
 22 43  1  0  0  0  0
 23 24  1  0  0  0  0
 23 44  1  0  0  0  0
 24 46  1  0  0  0  0
 25 45  1  0  0  0  0
M  END
> <PUBCHEM_COMPOUND_CID>
75536681

> <PUBCHEM_CONFORMER_RMSD>
1.2

> <PUBCHEM_CONFORMER_DIVERSEORDER>
1
45
128
109
99
46
9
135
79
3
42
28
138
38
37
62
86
95
110
121
24
87
78
80
129
11
55
32
30
70
48
40
137
82
31
22
54
127
15
58
75
123
33
66
89
27
116
49
34
67
60
71
84
131
92
104
98
130
36
136
85
2
6
52
21
93
18
57
8
23
26
56
94
44
17
74
20
132
108
113
105
107
53
114
35
72
69
59
126
101
50
122
120
118
7
65
102
100
25
91
13
10
4
12
117
112
14
97
29
68
103
90
51
73
119
47
76
96
41
124
115
61
43
5
63
133
19
106
16
83
111
77
88
134
39
64
125
81

> <PUBCHEM_MMFF94_PARTIAL_CHARGES>
37
1 1.45
10 0.28
11 0.28
12 0.28
13 0.36
14 0.41
15 0.17
16 -0.01
17 -0.15
18 -0.15
19 -0.15
2 -0.56
20 -0.15
21 -0.15
22 -0.15
23 0.16
24 -0.15
25 -0.15
3 -0.68
33 0.36
34 0.42
35 0.4
38 0.15
39 0.15
4 -0.65
40 0.15
41 0.15
42 0.15
43 0.15
44 0.15
45 0.15
46 0.15
5 -0.65
6 -0.9
7 -0.91
8 -0.62
9 0.27

> <PUBCHEM_EFFECTIVE_ROTOR_COUNT>
8

> <PUBCHEM_PHARMACOPHORE_FEATURES>
12
1 2 acceptor
1 3 acceptor
1 3 donor
1 4 acceptor
1 5 acceptor
1 6 cation
1 6 donor
1 7 donor
1 8 acceptor
5 2 9 10 11 12 rings
6 16 18 19 21 22 25 rings
6 8 15 17 20 23 24 rings

> <PUBCHEM_HEAVY_ATOM_COUNT>
25

> <PUBCHEM_ATOM_DEF_STEREO_COUNT>
3

> <PUBCHEM_ATOM_UDEF_STEREO_COUNT>
0

> <PUBCHEM_BOND_DEF_STEREO_COUNT>
0

> <PUBCHEM_BOND_UDEF_STEREO_COUNT>
0

> <PUBCHEM_ISOTOPIC_ATOM_COUNT>
0

> <PUBCHEM_COMPONENT_COUNT>
1

> <PUBCHEM_CACTVS_TAUTO_COUNT>
1

> <PUBCHEM_CONFORMER_ID>
0480992900000001

> <PUBCHEM_MMFF94_ENERGY>
44.8891

> <PUBCHEM_FEATURE_SELFOVERLAP>
60.916

> <PUBCHEM_SHAPE_FINGERPRINT>
10 15 16225768531965230677
10554248 39 17988637437701779175
10638233 991 18410576158943174609
10906281 52 17774457005539509315
11408170 132 14116970015778910249
11991303 11 16558742456110152125
125118 31 18335139769847063717
13167372 99 18411139095536972929
13533116 47 17895192143670658962
13668630 136 12535336901704664629
13782708 43 9511464403265489937
13878862 14 18408594864780877140
14251757 52 18413386531980487513
14347332 77 10735892646247535339
15183329 4 17489591160279712089
15348495 7 16009324200739543769
155225 6 17825960487990591228
15840311 113 18334580110080775429
18335252 114 18202568384980190020
1979834 28 15285351808812321522
20157964 124 18412546505080970730
20281389 69 18260829268130868717
20397935 70 8574714594367233884
21130935 74 18040154015840156699
21150785 3 16988560234378233805
21298829 104 18339080501162587708
21344244 181 11672064159559364101
21521239 73 12031786955186658189
21641784 216 16415208840580810465
21792934 111 16081354229756344543
2215653 11 13542468687026048046
22224240 67 17240482507909831571
23081809 10 16845299306692274483
23559900 14 17095814282697111338
249057 25 17774730744520555978
2748736 6 18335699472720663897
2838139 119 18413387623007798961
328310 630 18272658935383235337
33382 64 9007061253183747068
3472631 163 17916869135713200612
34797466 226 18343869896440049591
397830 11 17822587104563508747
44555599 121 18270687472068879521
465052 167 7853582305388828552
5104073 3 15575577880220297393
5718773 13 11167400374615939300
59682541 52 17417821616860598918
6328613 192 18413388744178665345
6898599 12 18129099107420735567

> <PUBCHEM_SHAPE_MULTIPOLES>
479.92
22.56
2.57
1.37
25.78
1.37
0.17
14.62
0.15
-4.3
-0.07
-0.5
-0.07
-0.62

> <PUBCHEM_SHAPE_SELFOVERLAP>
998.126

> <PUBCHEM_SHAPE_VOLUME>
273.6

> <PUBCHEM_COORDINATE_TYPE>
2
5
10

$$$$
