28990679
  -OEChem-12032416213D

 57 62  0     1  0  0  0  0  0999 V2000
    2.1315    1.9227    1.5540 O   0  0  0  0  0  0  0  0  0  0  0  0
   -2.7948    1.7271    0.6335 N   0  0  2  0  0  0  0  0  0  0  0  0
    0.2710    2.5379    0.2901 N   0  0  0  0  0  0  0  0  0  0  0  0
   -4.2356   -2.4499   -0.9718 N   0  0  0  0  0  0  0  0  0  0  0  0
    4.9582   -3.2509    2.0539 N   0  0  0  0  0  0  0  0  0  0  0  0
   -1.6810    3.8829    1.2645 C   0  0  1  0  0  0  0  0  0  0  0  0
   -1.7320    3.1963   -1.0852 C   0  0  2  0  0  0  0  0  0  0  0  0
   -1.8388    4.4038   -0.1578 C   0  0  0  0  0  0  0  0  0  0  0  0
   -2.7870    2.8524    1.5762 C   0  0  0  0  0  0  0  0  0  0  0  0
   -2.8624    2.1934   -0.7595 C   0  0  0  0  0  0  0  0  0  0  0  0
   -0.2703    3.3002    1.4244 C   0  0  0  0  0  0  0  0  0  0  0  0
   -0.3756    2.5297   -0.9480 C   0  0  0  0  0  0  0  0  0  0  0  0
   -3.8870    0.8030    0.9294 C   0  0  0  0  0  0  0  0  0  0  0  0
    0.1924    1.9207   -2.0008 C   0  0  0  0  0  0  0  0  0  0  0  0
    1.5156    1.9081    0.4866 C   0  0  0  0  0  0  0  0  0  0  0  0
    2.1113    1.2037   -0.7028 C   0  0  0  0  0  0  0  0  0  0  0  0
    1.4515    1.2438   -1.8701 C   0  0  0  0  0  0  0  0  0  0  0  0
   -3.5992   -0.5855    0.4234 C   0  0  0  0  0  0  0  0  0  0  0  0
    3.3874    0.4745   -0.5984 C   0  0  0  0  0  0  0  0  0  0  0  0
   -2.4811   -1.2885    0.8486 C   0  0  0  0  0  0  0  0  0  0  0  0
   -4.4376   -1.2061   -0.4802 C   0  0  0  0  0  0  0  0  0  0  0  0
   -2.2341   -2.5800    0.3639 C   0  0  0  0  0  0  0  0  0  0  0  0
    3.5140   -0.5882    0.2961 C   0  0  0  0  0  0  0  0  0  0  0  0
    4.4692    0.8475   -1.3958 C   0  0  0  0  0  0  0  0  0  0  0  0
   -3.1499   -3.1299   -0.5573 C   0  0  0  0  0  0  0  0  0  0  0  0
   -1.1111   -3.3180    0.7747 C   0  0  0  0  0  0  0  0  0  0  0  0
    4.7224   -1.2779    0.3931 C   0  0  0  0  0  0  0  0  0  0  0  0
    5.6779    0.1578   -1.2989 C   0  0  0  0  0  0  0  0  0  0  0  0
   -2.9042   -4.4130   -1.0383 C   0  0  0  0  0  0  0  0  0  0  0  0
    5.8045   -0.9050   -0.4044 C   0  0  0  0  0  0  0  0  0  0  0  0
   -0.8898   -4.5991    0.2775 C   0  0  0  0  0  0  0  0  0  0  0  0
   -1.7878   -5.1469   -0.6300 C   0  0  0  0  0  0  0  0  0  0  0  0
    4.8525   -2.3668    1.3096 C   0  0  0  0  0  0  0  0  0  0  0  0
   -1.7934    4.7127    1.9734 H   0  0  0  0  0  0  0  0  0  0  0  0
   -1.8685    3.5465   -2.1169 H   0  0  0  0  0  0  0  0  0  0  0  0
   -1.0667    5.1480   -0.3893 H   0  0  0  0  0  0  0  0  0  0  0  0
   -2.8102    4.8981   -0.2805 H   0  0  0  0  0  0  0  0  0  0  0  0
   -2.6345    2.4772    2.5960 H   0  0  0  0  0  0  0  0  0  0  0  0
   -3.7597    3.3632    1.5645 H   0  0  0  0  0  0  0  0  0  0  0  0
   -3.8299    2.6752   -0.9576 H   0  0  0  0  0  0  0  0  0  0  0  0
   -2.7847    1.3419   -1.4473 H   0  0  0  0  0  0  0  0  0  0  0  0
    0.4331    4.1287    1.5855 H   0  0  0  0  0  0  0  0  0  0  0  0
   -0.2106    2.6756    2.3246 H   0  0  0  0  0  0  0  0  0  0  0  0
   -4.8471    1.1775    0.5500 H   0  0  0  0  0  0  0  0  0  0  0  0
   -4.0195    0.7019    2.0158 H   0  0  0  0  0  0  0  0  0  0  0  0
   -0.2919    1.8940   -2.9713 H   0  0  0  0  0  0  0  0  0  0  0  0
    1.8288    0.7475   -2.7595 H   0  0  0  0  0  0  0  0  0  0  0  0
   -1.7963   -0.8365    1.5637 H   0  0  0  0  0  0  0  0  0  0  0  0
   -5.3294   -0.7141   -0.8561 H   0  0  0  0  0  0  0  0  0  0  0  0
    2.6693   -0.8852    0.9155 H   0  0  0  0  0  0  0  0  0  0  0  0
    4.3930    1.6767   -2.0953 H   0  0  0  0  0  0  0  0  0  0  0  0
   -0.4014   -2.8981    1.4841 H   0  0  0  0  0  0  0  0  0  0  0  0
    6.5207    0.4492   -1.9189 H   0  0  0  0  0  0  0  0  0  0  0  0
   -3.5925   -4.8648   -1.7503 H   0  0  0  0  0  0  0  0  0  0  0  0
    6.7530   -1.4327   -0.3401 H   0  0  0  0  0  0  0  0  0  0  0  0
   -0.0207   -5.1660    0.5968 H   0  0  0  0  0  0  0  0  0  0  0  0
   -1.6230   -6.1459   -1.0231 H   0  0  0  0  0  0  0  0  0  0  0  0
  1 15  2  0  0  0  0
  2  9  1  0  0  0  0
  2 10  1  0  0  0  0
  2 13  1  0  0  0  0
  3 11  1  0  0  0  0
  3 12  1  0  0  0  0
  3 15  1  0  0  0  0
  4 21  2  0  0  0  0
  4 25  1  0  0  0  0
  5 33  3  0  0  0  0
  6  8  1  0  0  0  0
  6  9  1  0  0  0  0
  6 11  1  0  0  0  0
  6 34  1  0  0  0  0
  7  8  1  0  0  0  0
  7 10  1  0  0  0  0
  7 12  1  0  0  0  0
  7 35  1  0  0  0  0
  8 36  1  0  0  0  0
  8 37  1  0  0  0  0
  9 38  1  0  0  0  0
  9 39  1  0  0  0  0
 10 40  1  0  0  0  0
 10 41  1  0  0  0  0
 11 42  1  0  0  0  0
 11 43  1  0  0  0  0
 12 14  2  0  0  0  0
 13 18  1  0  0  0  0
 13 44  1  0  0  0  0
 13 45  1  0  0  0  0
 14 17  1  0  0  0  0
 14 46  1  0  0  0  0
 15 16  1  0  0  0  0
 16 17  2  0  0  0  0
 16 19  1  0  0  0  0
 17 47  1  0  0  0  0
 18 20  2  0  0  0  0
 18 21  1  0  0  0  0
 19 23  1  0  0  0  0
 19 24  2  0  0  0  0
 20 22  1  0  0  0  0
 20 48  1  0  0  0  0
 21 49  1  0  0  0  0
 22 25  1  0  0  0  0
 22 26  2  0  0  0  0
 23 27  2  0  0  0  0
 23 50  1  0  0  0  0
 24 28  1  0  0  0  0
 24 51  1  0  0  0  0
 25 29  2  0  0  0  0
 26 31  1  0  0  0  0
 26 52  1  0  0  0  0
 27 30  1  0  0  0  0
 27 33  1  0  0  0  0
 28 30  2  0  0  0  0
 28 53  1  0  0  0  0
 29 32  1  0  0  0  0
 29 54  1  0  0  0  0
 30 55  1  0  0  0  0
 31 32  2  0  0  0  0
 31 56  1  0  0  0  0
 32 57  1  0  0  0  0
M  END
> <PUBCHEM_COMPOUND_CID>
28990679

> <PUBCHEM_CONFORMER_RMSD>
0.8

> <PUBCHEM_CONFORMER_DIVERSEORDER>
1
44
43
67
37
46
57
52
47
54
50
29
31
51
62
40
42
69
60
6
20
68
49
25
48
36
30
27
73
38
28
18
35
59
24
32
22
39
15
23
66
9
33
45
58
21
11
41
26
2
56
71
17
72
64
19
13
4
55
63
16
34
12
65
10
8
14
70
7
5
53
3
61

> <PUBCHEM_MMFF94_PARTIAL_CHARGES>
42
1 -0.57
10 0.27
11 0.3
12 -0.03
13 0.41
14 -0.15
15 0.62
16 -0.01
17 -0.15
18 -0.14
19 0.03
2 -0.81
20 -0.15
21 0.16
23 -0.15
24 -0.15
25 0.31
26 -0.15
27 0.07
28 -0.15
29 -0.15
3 -0.47
30 -0.15
31 -0.15
32 -0.15
33 0.48
4 -0.62
46 0.15
47 0.15
48 0.15
49 0.15
5 -0.56
50 0.15
51 0.15
52 0.15
53 0.15
54 0.15
55 0.15
56 0.15
57 0.15
7 0.14
9 0.27

> <PUBCHEM_EFFECTIVE_ROTOR_COUNT>
4

> <PUBCHEM_PHARMACOPHORE_FEATURES>
10
1 1 acceptor
1 2 cation
1 4 acceptor
1 5 acceptor
6 19 23 24 27 28 30 rings
6 2 6 7 8 9 10 rings
6 22 25 26 29 31 32 rings
6 3 12 14 15 16 17 rings
6 3 6 7 8 11 12 rings
6 4 18 20 21 22 25 rings

> <PUBCHEM_HEAVY_ATOM_COUNT>
33

> <PUBCHEM_ATOM_DEF_STEREO_COUNT>
2

> <PUBCHEM_ATOM_UDEF_STEREO_COUNT>
0

> <PUBCHEM_BOND_DEF_STEREO_COUNT>
0

> <PUBCHEM_BOND_UDEF_STEREO_COUNT>
0

> <PUBCHEM_ISOTOPIC_ATOM_COUNT>
0

> <PUBCHEM_COMPONENT_COUNT>
1

> <PUBCHEM_CACTVS_TAUTO_COUNT>
3

> <PUBCHEM_CONFORMER_ID>
01BA5CD700000001

> <PUBCHEM_MMFF94_ENERGY>
92.362

> <PUBCHEM_FEATURE_SELFOVERLAP>
52.334

> <PUBCHEM_SHAPE_FINGERPRINT>
10483366 6 18337375082029918965
10622 236 18187354390509281218
114674 6 16683173370665224327
11513181 2 18198347243176161934
11552529 35 18411703188368634196
12156800 1 15979985790542461117
12218070 45 18191003644470681690
12355185 1 17985233375471955661
12633257 1 17988097620389868993
12712778 12 18267848528766396610
12788726 201 18409452483729404810
12969540 37 17764023966883654749
14251757 5 18409738365268448322
14659021 117 18340482365333535880
14918310 93 12629369776921525907
15064986 96 17180819450290321425
15250474 111 18334576815925300518
15297060 5 17768518392402482978
15320294 125 18116991088076292946
15484559 13 15003835935433700996
15927050 60 17837778833655702445
16628084 112 18261390010450462227
16728300 4 18041848311845253539
19611394 137 18202277023231500456
20775438 99 17118566687116476543
20775530 9 18195814191702153727
21133410 171 17762851771646095934
22440779 20 15548601259507229092
229767 44 18264487278486288762
23516275 137 17471326983926568586
23559900 14 17764305437765565943
3027735 51 18268425746585207589
44880168 125 17773061746073506886
463206 1 18265903647004765035
5085150 59 18048299073207858441
5265222 85 18192734262228314444
6201320 77 15620377391294353022
6287921 2 16899603923657262835

> <PUBCHEM_SHAPE_MULTIPOLES>
653.33
10.49
7.4
1.66
14.6
4.6
-0.03
7.02
-0.03
-7.35
-0.63
0.81
-0.51
-2.87

> <PUBCHEM_SHAPE_SELFOVERLAP>
1462.011

> <PUBCHEM_SHAPE_VOLUME>
336.2

> <PUBCHEM_COORDINATE_TYPE>
2
5
10

$$$$
