26744260
  -OEChem-12032416283D

 44 47  0     1  0  0  0  0  0999 V2000
    0.2080   -1.4136    1.8676 O   0  0  0  0  0  0  0  0  0  0  0  0
   -5.1116   -1.0297   -0.6767 O   0  0  0  0  0  0  0  0  0  0  0  0
   -0.0432    1.9106   -1.7496 O   0  0  0  0  0  0  0  0  0  0  0  0
   -2.0003    0.5905    0.0058 N   0  0  1  0  0  0  0  0  0  0  0  0
    0.1522   -1.6703   -0.3568 N   0  0  0  0  0  0  0  0  0  0  0  0
    1.4293   -2.0001    1.5124 N   0  0  0  0  0  0  0  0  0  0  0  0
    2.4387   -2.7240   -0.6686 C   0  0  0  0  0  0  0  0  0  0  0  0
   -1.8592   -0.6313    0.8236 C   0  0  1  0  0  0  0  0  0  0  0  0
    3.8142   -2.1307   -0.5800 C   0  0  0  0  0  0  0  0  0  0  0  0
    2.9847   -1.9213   -1.8129 C   0  0  0  0  0  0  0  0  0  0  0  0
   -2.9792   -1.5665    0.3309 C   0  0  0  0  0  0  0  0  0  0  0  0
   -3.7232   -0.7658   -0.7306 C   0  0  2  0  0  0  0  0  0  0  0  0
   -3.4095    0.6746   -0.3731 C   0  0  0  0  0  0  0  0  0  0  0  0
    1.3208   -2.1196    0.1858 C   0  0  0  0  0  0  0  0  0  0  0  0
   -0.4837   -1.2539    0.7090 C   0  0  0  0  0  0  0  0  0  0  0  0
   -1.5430    1.7942    0.6878 C   0  0  0  0  0  0  0  0  0  0  0  0
   -0.0437    1.9260    0.6477 C   0  0  0  0  0  0  0  0  0  0  0  0
    0.6351    1.9780   -0.5697 C   0  0  0  0  0  0  0  0  0  0  0  0
    0.6669    1.9956    1.8460 C   0  0  0  0  0  0  0  0  0  0  0  0
    2.0244    2.0997   -0.5889 C   0  0  0  0  0  0  0  0  0  0  0  0
    2.0564    2.1172    1.8268 C   0  0  0  0  0  0  0  0  0  0  0  0
    2.7352    2.1692    0.6093 C   0  0  0  0  0  0  0  0  0  0  0  0
    0.7310    1.9712   -2.9459 C   0  0  0  0  0  0  0  0  0  0  0  0
    2.3723   -3.7972   -0.8086 H   0  0  0  0  0  0  0  0  0  0  0  0
   -2.0604   -0.4147    1.8823 H   0  0  0  0  0  0  0  0  0  0  0  0
    4.6595   -2.8048   -0.6501 H   0  0  0  0  0  0  0  0  0  0  0  0
    3.9810   -1.2735    0.0611 H   0  0  0  0  0  0  0  0  0  0  0  0
    2.5948   -0.9270   -1.9916 H   0  0  0  0  0  0  0  0  0  0  0  0
    3.2730   -2.4545   -2.7107 H   0  0  0  0  0  0  0  0  0  0  0  0
   -2.6092   -2.5072   -0.0927 H   0  0  0  0  0  0  0  0  0  0  0  0
   -3.6472   -1.8276    1.1614 H   0  0  0  0  0  0  0  0  0  0  0  0
   -3.3490   -1.0083   -1.7327 H   0  0  0  0  0  0  0  0  0  0  0  0
   -3.5701    1.3400   -1.2278 H   0  0  0  0  0  0  0  0  0  0  0  0
   -4.0473    1.0206    0.4512 H   0  0  0  0  0  0  0  0  0  0  0  0
   -1.9265    1.8474    1.7153 H   0  0  0  0  0  0  0  0  0  0  0  0
   -1.9414    2.6854    0.1823 H   0  0  0  0  0  0  0  0  0  0  0  0
   -5.2347   -1.9804   -0.8399 H   0  0  0  0  0  0  0  0  0  0  0  0
    0.1528    1.9540    2.8024 H   0  0  0  0  0  0  0  0  0  0  0  0
    2.6192    2.1440   -1.4946 H   0  0  0  0  0  0  0  0  0  0  0  0
    2.6099    2.1698    2.7597 H   0  0  0  0  0  0  0  0  0  0  0  0
    3.8173    2.2621    0.5957 H   0  0  0  0  0  0  0  0  0  0  0  0
    0.0308    1.9053   -3.7852 H   0  0  0  0  0  0  0  0  0  0  0  0
    1.4095    1.1160   -3.0320 H   0  0  0  0  0  0  0  0  0  0  0  0
    1.2519    2.9298   -3.0421 H   0  0  0  0  0  0  0  0  0  0  0  0
  1  6  1  0  0  0  0
  1 15  1  0  0  0  0
  2 12  1  0  0  0  0
  2 37  1  0  0  0  0
  3 18  1  0  0  0  0
  3 23  1  0  0  0  0
  4  8  1  0  0  0  0
  4 13  1  0  0  0  0
  4 16  1  0  0  0  0
  5 14  1  0  0  0  0
  5 15  2  0  0  0  0
  6 14  2  0  0  0  0
  7  9  1  0  0  0  0
  7 10  1  0  0  0  0
  7 14  1  0  0  0  0
  7 24  1  0  0  0  0
  8 11  1  0  0  0  0
  8 15  1  0  0  0  0
  8 25  1  0  0  0  0
  9 10  1  0  0  0  0
  9 26  1  0  0  0  0
  9 27  1  0  0  0  0
 10 28  1  0  0  0  0
 10 29  1  0  0  0  0
 11 12  1  0  0  0  0
 11 30  1  0  0  0  0
 11 31  1  0  0  0  0
 12 13  1  0  0  0  0
 12 32  1  0  0  0  0
 13 33  1  0  0  0  0
 13 34  1  0  0  0  0
 16 17  1  0  0  0  0
 16 35  1  0  0  0  0
 16 36  1  0  0  0  0
 17 18  1  0  0  0  0
 17 19  2  0  0  0  0
 18 20  2  0  0  0  0
 19 21  1  0  0  0  0
 19 38  1  0  0  0  0
 20 22  1  0  0  0  0
 20 39  1  0  0  0  0
 21 22  2  0  0  0  0
 21 40  1  0  0  0  0
 22 41  1  0  0  0  0
 23 42  1  0  0  0  0
 23 43  1  0  0  0  0
 23 44  1  0  0  0  0
M  END
> <PUBCHEM_COMPOUND_CID>
26744260

> <PUBCHEM_CONFORMER_RMSD>
0.8

> <PUBCHEM_CONFORMER_DIVERSEORDER>
1
128
135
94
124
108
132
47
49
57
119
150
149
86
23
78
4
21
89
114
127
53
31
19
99
34
22
40
107
143
121
153
77
59
88
133
111
2
130
97
152
105
65
117
3
146
139
122
32
24
126
134
12
36
81
106
110
69
26
72
20
144
60
93
74
115
25
79
118
151
7
41
76
101
96
44
63
68
102
145
28
138
113
45
84
43
15
51
27
80
67
95
103
98
140
137
54
11
116
38
85
50
70
100
91
73
109
29
48
55
10
35
13
42
71
131
6
142
123
141
90
83
17
14
56
30
112
58
148
33
147
39
104
37
61
9
18
66
92
129
46
125
120
75
52
16
8
82
64
5
87
136
62

> <PUBCHEM_MMFF94_PARTIAL_CHARGES>
32
1 -0.02
10 -0.2
12 0.28
13 0.27
14 0.43
15 0.3
16 0.41
17 -0.14
18 0.08
19 -0.15
2 -0.68
20 -0.15
21 -0.15
22 -0.15
23 0.28
24 0.1
26 0.1
27 0.1
28 0.1
29 0.1
3 -0.36
37 0.4
38 0.15
39 0.15
4 -0.81
40 0.15
41 0.15
5 -0.57
6 -0.41
7 -0.01
8 0.45
9 -0.2

> <PUBCHEM_EFFECTIVE_ROTOR_COUNT>
6.6

> <PUBCHEM_PHARMACOPHORE_FEATURES>
8
1 2 acceptor
1 2 donor
1 3 acceptor
1 4 cation
3 5 6 14 cation
5 1 5 6 14 15 rings
5 4 8 11 12 13 rings
6 17 18 19 20 21 22 rings

> <PUBCHEM_HEAVY_ATOM_COUNT>
23

> <PUBCHEM_ATOM_DEF_STEREO_COUNT>
2

> <PUBCHEM_ATOM_UDEF_STEREO_COUNT>
0

> <PUBCHEM_BOND_DEF_STEREO_COUNT>
0

> <PUBCHEM_BOND_UDEF_STEREO_COUNT>
0

> <PUBCHEM_ISOTOPIC_ATOM_COUNT>
0

> <PUBCHEM_COMPONENT_COUNT>
1

> <PUBCHEM_CACTVS_TAUTO_COUNT>
1

> <PUBCHEM_CONFORMER_ID>
019815C400000001

> <PUBCHEM_MMFF94_ENERGY>
53.9909

> <PUBCHEM_FEATURE_SELFOVERLAP>
40.596

> <PUBCHEM_SHAPE_FINGERPRINT>
107951 10 17462004568526562200
1100329 8 17911810076170582681
11370993 70 18122065570451157060
11578080 2 17461131310726747765
12156800 1 16445566292483928652
12173636 292 16614203665003272040
12422481 6 18121745496586962120
12539773 59 17258272455174642476
13149001 5 17617058475026862781
133893 2 18262536860769437921
14181834 199 18337658789392662331
14251745 187 18334019388962263708
14790565 3 17117770146196679824
14863182 85 18195240242416628183
1601671 61 17473265375750664545
16945 1 18193842539519759977
17357779 13 18340194181512355358
17492 54 17896060813738272998
17980427 26 17414972919398509353
20028762 73 16904407166348429199
20600515 1 17692501465313582665
20645476 183 16882437733970526105
20691752 17 17676767574274260921
20905425 154 18341897402301413189
22182313 1 18042946749926124301
23419403 2 18196345088536256284
23557571 272 17840581497158095066
23559900 14 18053102019472298920
404807 78 16246807906086407087
5895379 119 16485309244145442401
59755656 215 18267582605734590415
7364860 26 18272646883087733059
81228 2 17836649621680079107
84936 31 17560498677944896970
90525 40 17608370473583600065

> <PUBCHEM_SHAPE_MULTIPOLES>
440.78
5.82
3.78
2
5.02
0.01
-0.8
3.58
-1.63
-3.27
0.03
-0.98
-0.97
0.67

> <PUBCHEM_SHAPE_SELFOVERLAP>
941.904

> <PUBCHEM_SHAPE_VOLUME>
245.2

> <PUBCHEM_COORDINATE_TYPE>
2
5
10

$$$$
