45783767
  -OEChem-12032416283D

 46 49  0     1  0  0  0  0  0999 V2000
   -0.1623    2.8897   -2.0720 F   0  0  0  0  0  0  0  0  0  0  0  0
    0.1865    4.1765    0.3151 F   0  0  0  0  0  0  0  0  0  0  0  0
   -1.0376   -0.9170    2.0275 O   0  0  0  0  0  0  0  0  0  0  0  0
   -3.3449   -0.9850   -0.6221 N   0  0  1  0  0  0  0  0  0  0  0  0
   -0.2919   -1.4243   -0.0228 N   0  0  0  0  0  0  0  0  0  0  0  0
    0.3367   -0.6466    2.0349 N   0  0  0  0  0  0  0  0  0  0  0  0
    4.3538   -0.2569    0.8004 N   0  0  0  0  0  0  0  0  0  0  0  0
    5.9957   -0.4847   -0.9105 N   0  0  0  0  0  0  0  0  0  0  0  0
   -2.7696   -1.7374    0.5107 C   0  0  1  0  0  0  0  0  0  0  0  0
   -2.9456   -3.2181    0.1265 C   0  0  0  0  0  0  0  0  0  0  0  0
   -3.6820   -3.1986   -1.2054 C   0  0  0  0  0  0  0  0  0  0  0  0
   -4.3678   -1.8474   -1.2141 C   0  0  0  0  0  0  0  0  0  0  0  0
   -3.8796    0.3145   -0.2362 C   0  0  0  0  0  0  0  0  0  0  0  0
   -1.3251   -1.3709    0.7794 C   0  0  0  0  0  0  0  0  0  0  0  0
   -2.7932    1.3464   -0.0886 C   0  0  0  0  0  0  0  0  0  0  0  0
   -1.9644    1.6457   -1.1699 C   0  0  0  0  0  0  0  0  0  0  0  0
   -2.6155    2.0031    1.1290 C   0  0  0  0  0  0  0  0  0  0  0  0
    0.7044   -0.9703    0.7915 C   0  0  0  0  0  0  0  0  0  0  0  0
   -0.9581    2.6021   -1.0337 C   0  0  0  0  0  0  0  0  0  0  0  0
   -1.6089    2.9592    1.2654 C   0  0  0  0  0  0  0  0  0  0  0  0
    2.0583   -0.8537    0.3323 C   0  0  0  0  0  0  0  0  0  0  0  0
   -0.7803    3.2587    0.1840 C   0  0  0  0  0  0  0  0  0  0  0  0
    2.4062   -1.2013   -0.9684 C   0  0  0  0  0  0  0  0  0  0  0  0
    3.0602   -0.3909    1.1698 C   0  0  0  0  0  0  0  0  0  0  0  0
    3.7269   -1.0773   -1.3855 C   0  0  0  0  0  0  0  0  0  0  0  0
    4.6543   -0.6045   -0.4710 C   0  0  0  0  0  0  0  0  0  0  0  0
    7.0437   -0.0109   -0.0662 C   0  0  0  0  0  0  0  0  0  0  0  0
   -3.3522   -1.5669    1.4271 H   0  0  0  0  0  0  0  0  0  0  0  0
   -2.0042   -3.7718    0.0428 H   0  0  0  0  0  0  0  0  0  0  0  0
   -3.5645   -3.7223    0.8789 H   0  0  0  0  0  0  0  0  0  0  0  0
   -2.9620   -3.2677   -2.0303 H   0  0  0  0  0  0  0  0  0  0  0  0
   -4.3884   -4.0285   -1.2999 H   0  0  0  0  0  0  0  0  0  0  0  0
   -4.6317   -1.5370   -2.2298 H   0  0  0  0  0  0  0  0  0  0  0  0
   -5.2781   -1.8787   -0.6019 H   0  0  0  0  0  0  0  0  0  0  0  0
   -4.5498    0.6903   -1.0223 H   0  0  0  0  0  0  0  0  0  0  0  0
   -4.4974    0.2474    0.6689 H   0  0  0  0  0  0  0  0  0  0  0  0
   -2.0930    1.1460   -2.1263 H   0  0  0  0  0  0  0  0  0  0  0  0
   -3.2521    1.7785    1.9805 H   0  0  0  0  0  0  0  0  0  0  0  0
   -1.4694    3.4698    2.2136 H   0  0  0  0  0  0  0  0  0  0  0  0
    1.6700   -1.5709   -1.6775 H   0  0  0  0  0  0  0  0  0  0  0  0
    2.8720   -0.0986    2.1986 H   0  0  0  0  0  0  0  0  0  0  0  0
    4.0050   -1.3477   -2.3990 H   0  0  0  0  0  0  0  0  0  0  0  0
    6.1602   -0.5267   -1.9106 H   0  0  0  0  0  0  0  0  0  0  0  0
    6.8504    1.0129    0.2701 H   0  0  0  0  0  0  0  0  0  0  0  0
    7.9915   -0.0086   -0.6135 H   0  0  0  0  0  0  0  0  0  0  0  0
    7.1687   -0.6550    0.8104 H   0  0  0  0  0  0  0  0  0  0  0  0
  1 19  1  0  0  0  0
  2 22  1  0  0  0  0
  3  6  1  0  0  0  0
  3 14  1  0  0  0  0
  4  9  1  0  0  0  0
  4 12  1  0  0  0  0
  4 13  1  0  0  0  0
  5 14  2  0  0  0  0
  5 18  1  0  0  0  0
  6 18  2  0  0  0  0
  7 24  1  0  0  0  0
  7 26  2  0  0  0  0
  8 26  1  0  0  0  0
  8 27  1  0  0  0  0
  8 43  1  0  0  0  0
  9 10  1  0  0  0  0
  9 14  1  0  0  0  0
  9 28  1  0  0  0  0
 10 11  1  0  0  0  0
 10 29  1  0  0  0  0
 10 30  1  0  0  0  0
 11 12  1  0  0  0  0
 11 31  1  0  0  0  0
 11 32  1  0  0  0  0
 12 33  1  0  0  0  0
 12 34  1  0  0  0  0
 13 15  1  0  0  0  0
 13 35  1  0  0  0  0
 13 36  1  0  0  0  0
 15 16  2  0  0  0  0
 15 17  1  0  0  0  0
 16 19  1  0  0  0  0
 16 37  1  0  0  0  0
 17 20  2  0  0  0  0
 17 38  1  0  0  0  0
 18 21  1  0  0  0  0
 19 22  2  0  0  0  0
 20 22  1  0  0  0  0
 20 39  1  0  0  0  0
 21 23  1  0  0  0  0
 21 24  2  0  0  0  0
 23 25  2  0  0  0  0
 23 40  1  0  0  0  0
 24 41  1  0  0  0  0
 25 26  1  0  0  0  0
 25 42  1  0  0  0  0
 27 44  1  0  0  0  0
 27 45  1  0  0  0  0
 27 46  1  0  0  0  0
M  END
> <PUBCHEM_COMPOUND_CID>
45783767

> <PUBCHEM_CONFORMER_RMSD>
0.8

> <PUBCHEM_CONFORMER_DIVERSEORDER>
1
119
124
38
146
94
127
163
62
109
153
76
164
16
105
19
138
113
165
100
114
27
44
144
122
149
33
4
130
96
20
140
46
162
88
40
30
42
80
15
68
103
101
137
77
58
160
25
32
110
132
115
90
35
104
142
116
143
17
3
79
126
161
69
135
52
70
95
112
123
120
84
45
129
148
136
72
82
26
22
53
106
60
111
141
158
131
37
157
67
78
147
12
21
18
57
128
9
102
118
71
50
87
2
73
154
31
91
29
7
107
133
117
98
99
121
28
66
54
36
10
83
155
74
108
49
125
85
63
48
13
152
134
59
75
65
56
139
24
145
89
92
14
34
97
81
43
150
86
8
5
64
51
159
156
39
23
151
61
6
93
55
11
41
47

> <PUBCHEM_MMFF94_PARTIAL_CHARGES>
32
1 -0.19
12 0.27
13 0.41
14 0.3
15 -0.14
16 -0.15
17 -0.15
18 0.46
19 0.19
2 -0.19
20 -0.15
21 0.05
22 0.19
23 -0.15
24 0.16
25 -0.15
26 0.41
27 0.37
3 -0.02
37 0.15
38 0.15
39 0.15
4 -0.81
40 0.15
41 0.15
42 0.15
43 0.4
5 -0.57
6 -0.41
7 -0.62
8 -0.87
9 0.45

> <PUBCHEM_EFFECTIVE_ROTOR_COUNT>
6

> <PUBCHEM_PHARMACOPHORE_FEATURES>
8
1 4 cation
1 8 donor
3 5 6 18 cation
3 7 8 26 cation
5 3 5 6 14 18 rings
5 4 9 10 11 12 rings
6 15 16 17 19 20 22 rings
6 7 21 23 24 25 26 rings

> <PUBCHEM_HEAVY_ATOM_COUNT>
27

> <PUBCHEM_ATOM_DEF_STEREO_COUNT>
1

> <PUBCHEM_ATOM_UDEF_STEREO_COUNT>
0

> <PUBCHEM_BOND_DEF_STEREO_COUNT>
0

> <PUBCHEM_BOND_UDEF_STEREO_COUNT>
0

> <PUBCHEM_ISOTOPIC_ATOM_COUNT>
0

> <PUBCHEM_COMPONENT_COUNT>
1

> <PUBCHEM_CACTVS_TAUTO_COUNT>
8

> <PUBCHEM_CONFORMER_ID>
02BA9AD700000001

> <PUBCHEM_MMFF94_ENERGY>
59.1154

> <PUBCHEM_FEATURE_SELFOVERLAP>
40.598

> <PUBCHEM_SHAPE_FINGERPRINT>
10291535 26 18408895018485780378
10498660 4 18264199227787644325
10871710 139 18041277647924722941
10937287 8 17619631276354161672
1100329 8 18410857677201991065
11101153 10 18266467688560485036
11477941 20 18340767130846260316
11488393 25 17184194379514181107
12156800 1 15652058748916967188
12166972 35 17096089219926223110
12173636 292 17837767829522163505
12788726 201 18334286544222877091
13761468 95 17609510323865812148
13994607 96 17459210519911095297
14713325 29 18271249322178311166
14790565 3 18052535461846575617
14910302 57 18130223740465264806
14955137 171 18339098042346413067
15463212 79 18263084310022786426
15849732 13 18272100388055979763
15876981 60 18335145327381349078
15961568 22 18266168629892952904
17357779 13 18271227422324360455
17492 54 18042384865150933693
17818456 19 17975112263722753690
20642791 239 17967800670601463325
20775438 99 17043425005585768543
20905425 154 17905324379722527245
21033650 10 18191046529507543902
21344244 246 17691960879276061167
21623110 236 18262811764673740332
23402539 116 18334857242576985390
23419403 2 17758637377756318397
23557571 272 18342738520159695534
238 59 16531706216807963909
4280585 95 18337940294275784330
469060 322 17750540432464066225
531348 171 18269562633203880198
57527585 103 17316492991481768449
7399639 24 17916287485561869274

> <PUBCHEM_SHAPE_MULTIPOLES>
510.33
10.45
4.16
1.58
20.08
3.14
0.11
-5.35
-2.72
-5.24
-0.59
-0.14
0.17
-0.44

> <PUBCHEM_SHAPE_SELFOVERLAP>
1111.077

> <PUBCHEM_SHAPE_VOLUME>
281.2

> <PUBCHEM_COORDINATE_TYPE>
2
5
10

$$$$
