11879670
  -OEChem-12032416363D

 63 66  0     1  0  0  0  0  0999 V2000
   -0.7169    2.7146    1.4714 O   0  0  0  0  0  0  0  0  0  0  0  0
    0.5042   -0.1216    2.0684 O   0  0  0  0  0  0  0  0  0  0  0  0
   -4.5433    0.7060    1.4840 O   0  0  0  0  0  0  0  0  0  0  0  0
   -7.6302   -1.1220   -1.8241 O   0  0  0  0  0  0  0  0  0  0  0  0
   -7.1638    0.1522   -0.0053 O   0  0  0  0  0  0  0  0  0  0  0  0
    1.6842    2.0137   -0.6495 N   0  0  0  0  0  0  0  0  0  0  0  0
   -2.5352   -0.4522    1.5992 N   0  0  0  0  0  0  0  0  0  0  0  0
    0.9963    2.9198   -1.3580 N   0  0  0  0  0  0  0  0  0  0  0  0
    2.6157    2.0332   -2.6078 N   0  0  0  0  0  0  0  0  0  0  0  0
    1.5707    2.9278   -2.5547 N   0  0  0  0  0  0  0  0  0  0  0  0
    6.3049   -2.4592    0.3366 N   0  0  0  0  0  0  0  0  0  0  0  0
    0.2833    0.6371    0.8654 C   0  0  1  0  0  0  0  0  0  0  0  0
   -1.0267    1.3806    1.0388 C   0  0  1  0  0  0  0  0  0  0  0  0
    1.3316    1.7268    0.7434 C   0  0  2  0  0  0  0  0  0  0  0  0
   -1.7419    0.6264    2.1372 C   0  0  2  0  0  0  0  0  0  0  0  0
    0.7060    2.8908    1.5040 C   0  0  0  0  0  0  0  0  0  0  0  0
   -0.5892    0.0980    2.9705 C   0  0  0  0  0  0  0  0  0  0  0  0
   -3.8839   -0.3178    1.3155 C   0  0  0  0  0  0  0  0  0  0  0  0
    2.6683    1.4792   -1.4184 C   0  0  0  0  0  0  0  0  0  0  0  0
   -4.5048   -1.5867    0.7530 C   0  0  0  0  0  0  0  0  0  0  0  0
   -4.5250   -1.6705   -0.7947 C   0  0  0  0  0  0  0  0  0  0  0  0
   -5.3428   -0.5307   -1.4479 C   0  0  0  0  0  0  0  0  0  0  0  0
    3.5974    0.4732   -0.9715 C   0  0  0  0  0  0  0  0  0  0  0  0
   -5.1157   -3.0411   -1.1883 C   0  0  0  0  0  0  0  0  0  0  0  0
   -3.0890   -1.6085   -1.3562 C   0  0  0  0  0  0  0  0  0  0  0  0
    3.2882   -0.8787   -1.1225 C   0  0  0  0  0  0  0  0  0  0  0  0
    4.8057    0.8511   -0.3860 C   0  0  0  0  0  0  0  0  0  0  0  0
   -6.7864   -0.4488   -1.0028 C   0  0  0  0  0  0  0  0  0  0  0  0
    4.1875   -1.8524   -0.6883 C   0  0  0  0  0  0  0  0  0  0  0  0
    5.7050   -0.1227    0.0482 C   0  0  0  0  0  0  0  0  0  0  0  0
    5.3958   -1.4744   -0.1030 C   0  0  0  0  0  0  0  0  0  0  0  0
    7.5628   -2.0769    0.9466 C   0  0  0  0  0  0  0  0  0  0  0  0
    5.9869   -3.8664    0.1968 C   0  0  0  0  0  0  0  0  0  0  0  0
    0.2625   -0.0728    0.0325 H   0  0  0  0  0  0  0  0  0  0  0  0
   -1.5946    1.4646    0.1067 H   0  0  0  0  0  0  0  0  0  0  0  0
    2.2722    1.4560    1.2367 H   0  0  0  0  0  0  0  0  0  0  0  0
   -2.3887    1.2712    2.7419 H   0  0  0  0  0  0  0  0  0  0  0  0
    0.9629    3.8805    1.1150 H   0  0  0  0  0  0  0  0  0  0  0  0
    1.0044    2.8598    2.5581 H   0  0  0  0  0  0  0  0  0  0  0  0
   -0.2617    0.8427    3.7044 H   0  0  0  0  0  0  0  0  0  0  0  0
   -0.8157   -0.8323    3.5003 H   0  0  0  0  0  0  0  0  0  0  0  0
   -2.0654   -1.3244    1.3740 H   0  0  0  0  0  0  0  0  0  0  0  0
   -3.9621   -2.4495    1.1625 H   0  0  0  0  0  0  0  0  0  0  0  0
   -5.5197   -1.6631    1.1622 H   0  0  0  0  0  0  0  0  0  0  0  0
   -5.3326   -0.6295   -2.5417 H   0  0  0  0  0  0  0  0  0  0  0  0
   -4.8870    0.4471   -1.2471 H   0  0  0  0  0  0  0  0  0  0  0  0
   -5.1949   -3.1416   -2.2766 H   0  0  0  0  0  0  0  0  0  0  0  0
   -4.4856   -3.8614   -0.8250 H   0  0  0  0  0  0  0  0  0  0  0  0
   -6.1150   -3.1861   -0.7640 H   0  0  0  0  0  0  0  0  0  0  0  0
   -3.0819   -1.7901   -2.4374 H   0  0  0  0  0  0  0  0  0  0  0  0
   -2.4468   -2.3649   -0.8913 H   0  0  0  0  0  0  0  0  0  0  0  0
   -2.6308   -0.6277   -1.1928 H   0  0  0  0  0  0  0  0  0  0  0  0
    2.3497   -1.1886   -1.5763 H   0  0  0  0  0  0  0  0  0  0  0  0
    5.0601    1.9010   -0.2607 H   0  0  0  0  0  0  0  0  0  0  0  0
    3.9007   -2.8900   -0.8280 H   0  0  0  0  0  0  0  0  0  0  0  0
    6.6309    0.2222    0.4976 H   0  0  0  0  0  0  0  0  0  0  0  0
   -8.5609   -1.0642   -1.5199 H   0  0  0  0  0  0  0  0  0  0  0  0
    8.1584   -2.9522    1.2290 H   0  0  0  0  0  0  0  0  0  0  0  0
    7.3988   -1.5023    1.8650 H   0  0  0  0  0  0  0  0  0  0  0  0
    8.1783   -1.4933    0.2529 H   0  0  0  0  0  0  0  0  0  0  0  0
    5.8573   -4.1402   -0.8562 H   0  0  0  0  0  0  0  0  0  0  0  0
    6.7884   -4.5034    0.5871 H   0  0  0  0  0  0  0  0  0  0  0  0
    5.0822   -4.1255    0.7581 H   0  0  0  0  0  0  0  0  0  0  0  0
  1 13  1  0  0  0  0
  1 16  1  0  0  0  0
  2 12  1  0  0  0  0
  2 17  1  0  0  0  0
  3 18  2  0  0  0  0
  4 28  1  0  0  0  0
  4 57  1  0  0  0  0
  5 28  2  0  0  0  0
  6  8  1  0  0  0  0
  6 14  1  0  0  0  0
  6 19  1  0  0  0  0
  7 15  1  0  0  0  0
  7 18  1  0  0  0  0
  7 42  1  0  0  0  0
  8 10  2  0  0  0  0
  9 10  1  0  0  0  0
  9 19  2  0  0  0  0
 11 31  1  0  0  0  0
 11 32  1  0  0  0  0
 11 33  1  0  0  0  0
 12 13  1  0  0  0  0
 12 14  1  0  0  0  0
 12 34  1  0  0  0  0
 13 15  1  0  0  0  0
 13 35  1  0  0  0  0
 14 16  1  0  0  0  0
 14 36  1  0  0  0  0
 15 17  1  0  0  0  0
 15 37  1  0  0  0  0
 16 38  1  0  0  0  0
 16 39  1  0  0  0  0
 17 40  1  0  0  0  0
 17 41  1  0  0  0  0
 18 20  1  0  0  0  0
 19 23  1  0  0  0  0
 20 21  1  0  0  0  0
 20 43  1  0  0  0  0
 20 44  1  0  0  0  0
 21 22  1  0  0  0  0
 21 24  1  0  0  0  0
 21 25  1  0  0  0  0
 22 28  1  0  0  0  0
 22 45  1  0  0  0  0
 22 46  1  0  0  0  0
 23 26  2  0  0  0  0
 23 27  1  0  0  0  0
 24 47  1  0  0  0  0
 24 48  1  0  0  0  0
 24 49  1  0  0  0  0
 25 50  1  0  0  0  0
 25 51  1  0  0  0  0
 25 52  1  0  0  0  0
 26 29  1  0  0  0  0
 26 53  1  0  0  0  0
 27 30  2  0  0  0  0
 27 54  1  0  0  0  0
 29 31  2  0  0  0  0
 29 55  1  0  0  0  0
 30 31  1  0  0  0  0
 30 56  1  0  0  0  0
 32 58  1  0  0  0  0
 32 59  1  0  0  0  0
 32 60  1  0  0  0  0
 33 61  1  0  0  0  0
 33 62  1  0  0  0  0
 33 63  1  0  0  0  0
M  END
> <PUBCHEM_COMPOUND_CID>
11879670

> <PUBCHEM_CONFORMER_RMSD>
1

> <PUBCHEM_CONFORMER_DIVERSEORDER>
1
90
55
33
71
48
76
22
10
47
67
100
88
96
30
102
66
54
101
37
93
104
61
43
27
50
28
6
106
69
65
29
73
51
12
63
97
38
91
40
92
13
79
78
99
36
94
21
87
25
32
83
107
85
31
105
74
60
57
75
95
44
24
26
62
89
5
35
49
98
42
4
82
45
72
19
86
103
53
46
9
56
8
39
14
41
20
11
3
64
17
15
23
68
70
34
84
77
59
16
18
80
81
7
52
58
2

> <PUBCHEM_MMFF94_PARTIAL_CHARGES>
35
1 -0.56
11 -0.84
12 0.28
13 0.28
14 0.26
15 0.3
16 0.28
17 0.28
18 0.57
19 0.13
2 -0.56
20 0.06
22 0.06
23 0.05
26 -0.15
27 -0.15
28 0.66
29 -0.15
3 -0.57
30 -0.15
31 0.1
32 0.37
33 0.37
4 -0.65
42 0.37
5 -0.57
53 0.15
54 0.15
55 0.15
56 0.15
57 0.5
6 0.31
7 -0.73
8 -0.42
9 -0.34

> <PUBCHEM_EFFECTIVE_ROTOR_COUNT>
10.2

> <PUBCHEM_PHARMACOPHORE_FEATURES>
14
1 1 acceptor
1 11 cation
1 2 acceptor
1 3 acceptor
1 4 acceptor
1 5 acceptor
1 7 donor
3 21 24 25 hydrophobe
3 4 5 28 anion
3 6 9 19 cation
5 1 12 13 14 16 rings
5 2 12 13 15 17 rings
5 6 8 9 10 19 rings
6 23 26 27 29 30 31 rings

> <PUBCHEM_HEAVY_ATOM_COUNT>
33

> <PUBCHEM_ATOM_DEF_STEREO_COUNT>
4

> <PUBCHEM_ATOM_UDEF_STEREO_COUNT>
0

> <PUBCHEM_BOND_DEF_STEREO_COUNT>
0

> <PUBCHEM_BOND_UDEF_STEREO_COUNT>
0

> <PUBCHEM_ISOTOPIC_ATOM_COUNT>
0

> <PUBCHEM_COMPONENT_COUNT>
1

> <PUBCHEM_CACTVS_TAUTO_COUNT>
2

> <PUBCHEM_CONFORMER_ID>
00B544F600000001

> <PUBCHEM_MMFF94_ENERGY>
95.2813

> <PUBCHEM_FEATURE_SELFOVERLAP>
71.797

> <PUBCHEM_SHAPE_FINGERPRINT>
10483366 6 17240759532566875552
10670039 82 13407072643190937131
10674148 151 16805597036528433292
11135926 11 17534377641051082068
11720765 8 18335418014686926636
1200032 147 8574426548317524376
12166972 35 18409166645002585742
12373685 5 18202004321876118576
12390115 104 10807634685391942880
12758862 65 15984819393185901514
13761468 95 18117271464269759949
13782708 43 16807039703453761523
13828863 39 9943802291975159855
14068700 675 18342177735392017984
14347329 18 13912323499077466526
15052358 14 16732986414085578202
15163728 17 11746938676759878608
15183329 4 16805321076500765824
15419009 47 18189610549725315181
17857418 61 17846503655657628361
19315092 285 18201722839015835784
19438510 23 8790301311314621366
20028762 73 18201159863235601446
21315764 119 18335413604503729535
21458453 9 14404604580586929990
23536364 44 17313378985452253292
339767 52 17703794729858085583
3459 83 18334019388967519177
38570 142 9439399143038025274
437795 139 17917429869595177271
437795 70 16732983098249448460
4394409 98 17989203733962459111
439807 62 18197782305312148287
444735 79 14261346964098183110
46194498 28 15938406856051827604
463206 1 18342188794384322090
50009960 94 16270494526627788959
5085150 59 17346599639091734231
513532 50 17823686663093468160
613672 6 16486705761393518221
6523845 18 16153715323632419457
66674814 147 18408041823227908618

> <PUBCHEM_SHAPE_MULTIPOLES>
619.89
18.43
3.61
2.42
6.8
0.5
0.07
18.54
-3.85
-3.52
-0.62
0.87
-1.34
-3.42

> <PUBCHEM_SHAPE_SELFOVERLAP>
1316.889

> <PUBCHEM_SHAPE_VOLUME>
348.5

> <PUBCHEM_COORDINATE_TYPE>
2
5
10

$$$$
