75536107
  -OEChem-12032416293D

 52 55  0     1  0  0  0  0  0999 V2000
    2.4801    3.0671   -1.6082 O   0  0  0  0  0  0  0  0  0  0  0  0
    2.2834    4.6316    0.6708 O   0  0  0  0  0  0  0  0  0  0  0  0
    5.2153   -3.3762   -0.0372 O   0  0  0  0  0  0  0  0  0  0  0  0
   -0.4739    1.2786   -0.5046 N   0  0  0  0  0  0  0  0  0  0  0  0
   -2.9366   -0.3495    0.6855 N   0  0  0  0  0  0  0  0  0  0  0  0
   -3.1984   -0.4910   -1.5171 N   0  0  0  0  0  0  0  0  0  0  0  0
    0.9719    1.4542   -0.6575 C   0  0  2  0  0  0  0  0  0  0  0  0
    1.6935    1.0066    0.6513 C   0  0  2  0  0  0  0  0  0  0  0  0
    1.3044    2.9472   -0.8085 C   0  0  1  0  0  0  0  0  0  0  0  0
    2.3918    2.2666    1.1986 C   0  0  0  0  0  0  0  0  0  0  0  0
    1.5730    3.4112    0.6198 C   0  0  1  0  0  0  0  0  0  0  0  0
    2.6347   -0.1647    0.4679 C   0  0  0  0  0  0  0  0  0  0  0  0
   -0.8518   -0.1135   -0.7024 C   0  0  0  0  0  0  0  0  0  0  0  0
    3.7007   -0.0689   -0.4267 C   0  0  0  0  0  0  0  0  0  0  0  0
    2.4361   -1.3398    1.1928 C   0  0  0  0  0  0  0  0  0  0  0  0
   -2.3345   -0.3202   -0.5416 C   0  0  0  0  0  0  0  0  0  0  0  0
    4.5681   -1.1479   -0.5962 C   0  0  0  0  0  0  0  0  0  0  0  0
    3.3035   -2.4189    1.0233 C   0  0  0  0  0  0  0  0  0  0  0  0
    4.3696   -2.3229    0.1288 C   0  0  0  0  0  0  0  0  0  0  0  0
   -4.2783   -0.5528    0.4888 C   0  0  0  0  0  0  0  0  0  0  0  0
   -4.4165   -0.6378   -0.8939 C   0  0  0  0  0  0  0  0  0  0  0  0
   -2.2801   -0.1947    1.9641 C   0  0  0  0  0  0  0  0  0  0  0  0
   -5.3504   -0.6660    1.3746 C   0  0  0  0  0  0  0  0  0  0  0  0
   -5.6926   -0.8482   -1.4430 C   0  0  0  0  0  0  0  0  0  0  0  0
   -6.6133   -0.8752    0.8109 C   0  0  0  0  0  0  0  0  0  0  0  0
   -6.7836   -0.9649   -0.5727 C   0  0  0  0  0  0  0  0  0  0  0  0
    6.2842   -3.2100   -0.9677 C   0  0  0  0  0  0  0  0  0  0  0  0
    1.3221    0.9070   -1.5418 H   0  0  0  0  0  0  0  0  0  0  0  0
    0.9423    0.7236    1.4034 H   0  0  0  0  0  0  0  0  0  0  0  0
    0.5239    3.5443   -1.2915 H   0  0  0  0  0  0  0  0  0  0  0  0
    2.3939    2.2868    2.2944 H   0  0  0  0  0  0  0  0  0  0  0  0
    3.4412    2.3490    0.8905 H   0  0  0  0  0  0  0  0  0  0  0  0
    0.6307    3.5257    1.1691 H   0  0  0  0  0  0  0  0  0  0  0  0
   -0.9575    1.8494   -1.1984 H   0  0  0  0  0  0  0  0  0  0  0  0
   -0.3280   -0.7814   -0.0111 H   0  0  0  0  0  0  0  0  0  0  0  0
   -0.5796   -0.4340   -1.7164 H   0  0  0  0  0  0  0  0  0  0  0  0
    2.2603    2.7465   -2.4996 H   0  0  0  0  0  0  0  0  0  0  0  0
    2.4927    4.8092    1.6036 H   0  0  0  0  0  0  0  0  0  0  0  0
    3.8741    0.8358   -1.0014 H   0  0  0  0  0  0  0  0  0  0  0  0
    1.6101   -1.4307    1.8931 H   0  0  0  0  0  0  0  0  0  0  0  0
    5.3749   -1.0059   -1.3070 H   0  0  0  0  0  0  0  0  0  0  0  0
    3.1436   -3.3318    1.5905 H   0  0  0  0  0  0  0  0  0  0  0  0
   -1.4615   -0.9159    2.0288 H   0  0  0  0  0  0  0  0  0  0  0  0
   -1.9020    0.8280    2.0364 H   0  0  0  0  0  0  0  0  0  0  0  0
   -2.9812   -0.3827    2.7790 H   0  0  0  0  0  0  0  0  0  0  0  0
   -5.2282   -0.5964    2.4492 H   0  0  0  0  0  0  0  0  0  0  0  0
   -5.8354   -0.9194   -2.5165 H   0  0  0  0  0  0  0  0  0  0  0  0
   -7.4784   -0.9692    1.4626 H   0  0  0  0  0  0  0  0  0  0  0  0
   -7.7777   -1.1278   -0.9811 H   0  0  0  0  0  0  0  0  0  0  0  0
    6.8562   -4.1436   -0.9729 H   0  0  0  0  0  0  0  0  0  0  0  0
    6.9708   -2.4162   -0.6544 H   0  0  0  0  0  0  0  0  0  0  0  0
    5.9110   -3.0581   -1.9863 H   0  0  0  0  0  0  0  0  0  0  0  0
  1  9  1  0  0  0  0
  1 37  1  0  0  0  0
  2 11  1  0  0  0  0
  2 38  1  0  0  0  0
  3 19  1  0  0  0  0
  3 27  1  0  0  0  0
  4  7  1  0  0  0  0
  4 13  1  0  0  0  0
  4 34  1  0  0  0  0
  5 16  1  0  0  0  0
  5 20  1  0  0  0  0
  5 22  1  0  0  0  0
  6 16  2  0  0  0  0
  6 21  1  0  0  0  0
  7  8  1  0  0  0  0
  7  9  1  0  0  0  0
  7 28  1  0  0  0  0
  8 10  1  0  0  0  0
  8 12  1  0  0  0  0
  8 29  1  0  0  0  0
  9 11  1  0  0  0  0
  9 30  1  0  0  0  0
 10 11  1  0  0  0  0
 10 31  1  0  0  0  0
 10 32  1  0  0  0  0
 11 33  1  0  0  0  0
 12 14  2  0  0  0  0
 12 15  1  0  0  0  0
 13 16  1  0  0  0  0
 13 35  1  0  0  0  0
 13 36  1  0  0  0  0
 14 17  1  0  0  0  0
 14 39  1  0  0  0  0
 15 18  2  0  0  0  0
 15 40  1  0  0  0  0
 17 19  2  0  0  0  0
 17 41  1  0  0  0  0
 18 19  1  0  0  0  0
 18 42  1  0  0  0  0
 20 21  1  0  0  0  0
 20 23  2  0  0  0  0
 21 24  2  0  0  0  0
 22 43  1  0  0  0  0
 22 44  1  0  0  0  0
 22 45  1  0  0  0  0
 23 25  1  0  0  0  0
 23 46  1  0  0  0  0
 24 26  1  0  0  0  0
 24 47  1  0  0  0  0
 25 26  2  0  0  0  0
 25 48  1  0  0  0  0
 26 49  1  0  0  0  0
 27 50  1  0  0  0  0
 27 51  1  0  0  0  0
 27 52  1  0  0  0  0
M  END
> <PUBCHEM_COMPOUND_CID>
75536107

> <PUBCHEM_CONFORMER_RMSD>
0.8

> <PUBCHEM_CONFORMER_DIVERSEORDER>
3
16
70
72
13
68
65
38
32
56
10
71
47
62
58
27
35
25
66
34
78
67
44
55
79
29
81
43
28
26
37
52
57
20
9
1
40
75
59
69
24
11
46
64
50
51
73
60
18
30
2
21
76
74
77
31
6
8
17
54
42
19
33
61
45
53
41
5
36
63
48
80
49
23
22
39
4
7
12
15
14

> <PUBCHEM_MMFF94_PARTIAL_CHARGES>
37
1 -0.68
11 0.28
12 -0.14
13 0.45
14 -0.15
15 -0.15
16 0.01
17 -0.15
18 -0.15
19 0.08
2 -0.68
20 -0.15
21 0.23
22 0.26
23 -0.15
24 -0.15
25 -0.15
26 -0.15
27 0.28
3 -0.36
34 0.36
37 0.4
38 0.4
39 0.15
4 -0.9
40 0.15
41 0.15
42 0.15
46 0.15
47 0.15
48 0.15
49 0.15
5 0.05
6 -0.57
7 0.27
8 0.14
9 0.28

> <PUBCHEM_EFFECTIVE_ROTOR_COUNT>
6

> <PUBCHEM_PHARMACOPHORE_FEATURES>
12
1 1 acceptor
1 1 donor
1 2 acceptor
1 2 donor
1 3 acceptor
1 4 cation
1 4 donor
3 5 6 16 cation
5 5 6 16 20 21 rings
5 7 8 9 10 11 rings
6 12 14 15 17 18 19 rings
6 20 21 23 24 25 26 rings

> <PUBCHEM_HEAVY_ATOM_COUNT>
27

> <PUBCHEM_ATOM_DEF_STEREO_COUNT>
4

> <PUBCHEM_ATOM_UDEF_STEREO_COUNT>
0

> <PUBCHEM_BOND_DEF_STEREO_COUNT>
0

> <PUBCHEM_BOND_UDEF_STEREO_COUNT>
0

> <PUBCHEM_ISOTOPIC_ATOM_COUNT>
0

> <PUBCHEM_COMPONENT_COUNT>
1

> <PUBCHEM_CACTVS_TAUTO_COUNT>
1

> <PUBCHEM_CONFORMER_ID>
048096EB00000003

> <PUBCHEM_MMFF94_ENERGY>
78.0239

> <PUBCHEM_FEATURE_SELFOVERLAP>
61.014

> <PUBCHEM_SHAPE_FINGERPRINT>
10319926 262 15195287516814569607
11059845 2 17129597734799659595
114674 6 18186791509037602850
11991303 11 17468201041892917572
12107183 9 18127981815171569233
12166972 35 18202281403222292827
12236239 1 17989487450827461043
12516196 113 18411416177184314658
12553582 1 18338223878477621906
12616971 3 18060139869184341983
12788726 201 17758109298768980368
13009979 54 18059298660388455024
13533116 47 18337674221727088953
13631057 29 18192150387864042194
13673619 4 18041000609448606711
13690498 29 18188770535288285222
13726171 33 13696163851580361357
13757389 114 17688884038216270276
13911852 28 18268146465899669366
13914758 101 18272082761636589213
13955234 65 18267583687829225584
14068700 675 17988926630613297330
14251764 30 18340206276425675518
14739800 52 16844436322833910897
15142526 21 17265240451139430401
17349148 13 17704074014759996031
17844677 252 18409445904287679485
1813 80 18271816674689066766
18222031 100 18340480089037960954
18681886 176 15481276121822643593
20505436 4 17628643256039099533
20775438 99 18048296032324352059
21120745 212 18123200009232986460
21130935 74 18265621060692088003
2132832 1 18131073718925228593
21344244 78 18131056160740194193
21365058 113 18113626667972216725
221357 26 18186518778566878791
2215653 11 17894905235876621671
22849341 161 18271812302053565454
23559900 14 17458628956012505415
239999 70 17385998545938477713
3004659 81 17417822780828682957
3421961 26 18410851079572951216
345986 75 18201995482706323035
437815 12 18336828593715620511
46194498 28 17531246196804940820
465052 167 18341897389506708479
495365 180 18116709810456828201
5219985 9 18340771442956183190
5309563 4 18339357444611054558
54039377 194 18268996385064021462
57527585 21 14999982233368309958
6823239 73 16515970358135206013
70251023 43 18409728456636627801
77188 2 18341048528471549264
7970288 3 18341047415584779782
9962374 69 18341602772352149703

> <PUBCHEM_SHAPE_MULTIPOLES>
523.1
15.25
4.08
1.49
16.66
3.72
-0.13
-14.94
1.67
-9.33
0.04
0.87
0.05
0.3

> <PUBCHEM_SHAPE_SELFOVERLAP>
1134.84

> <PUBCHEM_SHAPE_VOLUME>
287.7

> <PUBCHEM_COORDINATE_TYPE>
2
5
10

$$$$
