75536569
  -OEChem-12032416303D

 50 52  0     1  0  0  0  0  0999 V2000
    1.1533   -0.8116   -0.7957 O   0  0  0  0  0  0  0  0  0  0  0  0
    0.3837    1.9447    1.3760 O   0  0  0  0  0  0  0  0  0  0  0  0
    4.9406    1.1796    0.5840 O   0  0  0  0  0  0  0  0  0  0  0  0
    3.7539   -0.8193    0.4328 N   0  0  0  0  0  0  0  0  0  0  0  0
   -2.1121    0.4936    0.1342 N   0  0  0  0  0  0  0  0  0  0  0  0
   -7.5227   -2.9301    0.4413 N   0  0  0  0  0  0  0  0  0  0  0  0
    1.5473    0.1838    0.1634 C   0  0  1  0  0  0  0  0  0  0  0  0
    0.2659    0.6371    0.8498 C   0  0  2  0  0  0  0  0  0  0  0  0
    5.9631   -0.6816   -0.5050 C   0  0  0  0  0  0  0  0  0  0  0  0
   -0.7248    0.5541   -0.2967 C   0  0  1  0  0  0  0  0  0  0  0  0
    6.7921    0.3234   -1.3063 C   0  0  0  0  0  0  0  0  0  0  0  0
    6.9257   -1.3299    0.4963 C   0  0  0  0  0  0  0  0  0  0  0  0
    8.0094    0.5988   -0.4354 C   0  0  0  0  0  0  0  0  0  0  0  0
    8.3033   -0.7575    0.1799 C   0  0  0  0  0  0  0  0  0  0  0  0
   -0.2674   -0.7143   -0.9982 C   0  0  0  0  0  0  0  0  0  0  0  0
    2.5671   -0.4032    1.1230 C   0  0  0  0  0  0  0  0  0  0  0  0
    4.8487    0.0104    0.2189 C   0  0  0  0  0  0  0  0  0  0  0  0
   -3.0191    0.7538   -0.9774 C   0  0  0  0  0  0  0  0  0  0  0  0
   -4.4617    0.6789   -0.5531 C   0  0  0  0  0  0  0  0  0  0  0  0
   -5.0651   -0.5612   -0.3435 C   0  0  0  0  0  0  0  0  0  0  0  0
   -5.1947    1.8513   -0.3681 C   0  0  0  0  0  0  0  0  0  0  0  0
   -6.4013   -0.6290    0.0509 C   0  0  0  0  0  0  0  0  0  0  0  0
   -6.5309    1.7835    0.0266 C   0  0  0  0  0  0  0  0  0  0  0  0
   -7.1344    0.5434    0.2358 C   0  0  0  0  0  0  0  0  0  0  0  0
   -7.0200   -1.8988    0.2664 C   0  0  0  0  0  0  0  0  0  0  0  0
    2.0032    1.0124   -0.3945 H   0  0  0  0  0  0  0  0  0  0  0  0
   -0.0114   -0.0470    1.6615 H   0  0  0  0  0  0  0  0  0  0  0  0
   -0.5666    1.4270   -0.9458 H   0  0  0  0  0  0  0  0  0  0  0  0
    5.5437   -1.4307   -1.1873 H   0  0  0  0  0  0  0  0  0  0  0  0
    7.1209   -0.1454   -2.2427 H   0  0  0  0  0  0  0  0  0  0  0  0
    6.2615    1.2428   -1.5732 H   0  0  0  0  0  0  0  0  0  0  0  0
    6.9288   -2.4210    0.3994 H   0  0  0  0  0  0  0  0  0  0  0  0
    6.6535   -1.0988    1.5333 H   0  0  0  0  0  0  0  0  0  0  0  0
    7.7665    1.3282    0.3459 H   0  0  0  0  0  0  0  0  0  0  0  0
    8.8541    0.9841   -1.0136 H   0  0  0  0  0  0  0  0  0  0  0  0
    8.8150   -1.3980   -0.5485 H   0  0  0  0  0  0  0  0  0  0  0  0
    8.9363   -0.6848    1.0690 H   0  0  0  0  0  0  0  0  0  0  0  0
   -0.7175   -1.6153   -0.5656 H   0  0  0  0  0  0  0  0  0  0  0  0
   -0.4802   -0.7039   -2.0715 H   0  0  0  0  0  0  0  0  0  0  0  0
    2.1663   -1.2975    1.6126 H   0  0  0  0  0  0  0  0  0  0  0  0
    2.8356    0.3262    1.8946 H   0  0  0  0  0  0  0  0  0  0  0  0
    3.7843   -1.7748    0.0892 H   0  0  0  0  0  0  0  0  0  0  0  0
   -2.2669    1.1964    0.8578 H   0  0  0  0  0  0  0  0  0  0  0  0
    0.6282    2.5450    0.6515 H   0  0  0  0  0  0  0  0  0  0  0  0
   -2.8663    0.0257   -1.7843 H   0  0  0  0  0  0  0  0  0  0  0  0
   -2.8185    1.7418   -1.4118 H   0  0  0  0  0  0  0  0  0  0  0  0
   -4.4905   -1.4738   -0.4887 H   0  0  0  0  0  0  0  0  0  0  0  0
   -4.7372    2.8244   -0.5253 H   0  0  0  0  0  0  0  0  0  0  0  0
   -7.1013    2.6964    0.1713 H   0  0  0  0  0  0  0  0  0  0  0  0
   -8.1767    0.5071    0.5433 H   0  0  0  0  0  0  0  0  0  0  0  0
  1  7  1  0  0  0  0
  1 15  1  0  0  0  0
  2  8  1  0  0  0  0
  2 44  1  0  0  0  0
  3 17  2  0  0  0  0
  4 16  1  0  0  0  0
  4 17  1  0  0  0  0
  4 42  1  0  0  0  0
  5 10  1  0  0  0  0
  5 18  1  0  0  0  0
  5 43  1  0  0  0  0
  6 25  3  0  0  0  0
  7  8  1  0  0  0  0
  7 16  1  0  0  0  0
  7 26  1  0  0  0  0
  8 10  1  0  0  0  0
  8 27  1  0  0  0  0
  9 11  1  0  0  0  0
  9 12  1  0  0  0  0
  9 17  1  0  0  0  0
  9 29  1  0  0  0  0
 10 15  1  0  0  0  0
 10 28  1  0  0  0  0
 11 13  1  0  0  0  0
 11 30  1  0  0  0  0
 11 31  1  0  0  0  0
 12 14  1  0  0  0  0
 12 32  1  0  0  0  0
 12 33  1  0  0  0  0
 13 14  1  0  0  0  0
 13 34  1  0  0  0  0
 13 35  1  0  0  0  0
 14 36  1  0  0  0  0
 14 37  1  0  0  0  0
 15 38  1  0  0  0  0
 15 39  1  0  0  0  0
 16 40  1  0  0  0  0
 16 41  1  0  0  0  0
 18 19  1  0  0  0  0
 18 45  1  0  0  0  0
 18 46  1  0  0  0  0
 19 20  2  0  0  0  0
 19 21  1  0  0  0  0
 20 22  1  0  0  0  0
 20 47  1  0  0  0  0
 21 23  2  0  0  0  0
 21 48  1  0  0  0  0
 22 24  2  0  0  0  0
 22 25  1  0  0  0  0
 23 24  1  0  0  0  0
 23 49  1  0  0  0  0
 24 50  1  0  0  0  0
M  END
> <PUBCHEM_COMPOUND_CID>
75536569

> <PUBCHEM_CONFORMER_RMSD>
1.2

> <PUBCHEM_CONFORMER_DIVERSEORDER>
1
113
107
97
80
27
54
37
32
96
86
49
47
94
83
6
58
40
2
82
24
34
19
110
108
79
103
60
16
72
100
51
69
75
112
25
46
56
78
7
90
73
91
39
9
53
74
84
52
65
85
105
18
30
98
68
93
42
70
62
35
8
95
33
99
89
67
59
38
31
71
77
55
20
104
63
106
4
15
111
23
28
41
88
87
76
64
66
45
22
12
44
81
5
13
26
3
36
109
29
14
57
102
43
92
101
11
50
48
21
10
17
61

> <PUBCHEM_MMFF94_PARTIAL_CHARGES>
28
1 -0.56
10 0.27
15 0.28
16 0.3
17 0.57
18 0.41
19 -0.14
2 -0.68
20 -0.15
21 -0.15
22 0.07
23 -0.15
24 -0.15
25 0.48
3 -0.57
4 -0.73
42 0.37
43 0.36
44 0.4
47 0.15
48 0.15
49 0.15
5 -0.9
50 0.15
6 -0.56
7 0.28
8 0.28
9 0.06

> <PUBCHEM_EFFECTIVE_ROTOR_COUNT>
9

> <PUBCHEM_PHARMACOPHORE_FEATURES>
11
1 1 acceptor
1 2 acceptor
1 2 donor
1 3 acceptor
1 4 donor
1 5 cation
1 5 donor
1 6 acceptor
5 1 7 8 10 15 rings
5 9 11 12 13 14 rings
6 19 20 21 22 23 24 rings

> <PUBCHEM_HEAVY_ATOM_COUNT>
25

> <PUBCHEM_ATOM_DEF_STEREO_COUNT>
3

> <PUBCHEM_ATOM_UDEF_STEREO_COUNT>
0

> <PUBCHEM_BOND_DEF_STEREO_COUNT>
0

> <PUBCHEM_BOND_UDEF_STEREO_COUNT>
0

> <PUBCHEM_ISOTOPIC_ATOM_COUNT>
0

> <PUBCHEM_COMPONENT_COUNT>
1

> <PUBCHEM_CACTVS_TAUTO_COUNT>
2

> <PUBCHEM_CONFORMER_ID>
048098B900000001

> <PUBCHEM_MMFF94_ENERGY>
46.4915

> <PUBCHEM_FEATURE_SELFOVERLAP>
55.822

> <PUBCHEM_SHAPE_FINGERPRINT>
10050765 1 17843109561915160404
10299344 5 18259703389071180130
10666366 153 10809613785084220848
11181472 205 11023838301144770042
11315181 36 18187365424907615549
11524674 6 17203604904672269959
12082328 90 18410291389531142007
12091667 2 16443064972545834429
12166972 35 18333733528808853980
13533116 47 14490462046945283576
14123256 10 16008750195371289532
14251764 18 17676490548989001454
14251764 46 17917710184619494717
14344974 204 17986671683201683455
14344974 52 18337958987440136916
14429380 56 15430037703610836838
14671636 106 18263083370000065091
14729087 3 9223236243438559911
14856354 85 18273215309646443213
14933364 13 18412543202003232820
15183329 4 14836119940425500764
15849732 13 18202844357476164132
17093844 174 9799691507100476327
18335252 98 18412548708573520406
19841028 212 18191865631538034474
20105231 36 17489875938144510342
21095086 128 17967812734990790658
21150785 3 17676488354123562938
21267235 1 18060139838792581728
21315763 28 18187364316357575916
21781051 124 18272941535509846526
21792961 116 18059572434441226661
22224240 67 16153710921053343256
23035841 295 18344143683034663182
23081809 10 16153980253693699977
23424782 7 18334858354841120138
246663 6 17989208156934520550
3178227 256 17489590077874099962
328311 84 18060139846997290510
395649 100 17313390075242714043
4325135 7 17458345229861073351
4339292 15 18130781313926721103
445580 167 17603587464742393508
54039377 194 17822297946587241715
5758199 1 17458346316540624808
5969126 39 15430028847351362575
67123 10 18334576854585164084

> <PUBCHEM_SHAPE_MULTIPOLES>
481.94
27.79
1.8
1
11.88
0.61
0.01
6.8
1.07
-4.03
-0.27
0.67
-0.13
0.19

> <PUBCHEM_SHAPE_SELFOVERLAP>
1009.187

> <PUBCHEM_SHAPE_VOLUME>
271.9

> <PUBCHEM_COORDINATE_TYPE>
2
5
10

$$$$
