40777706
  -OEChem-12032416213D

 59 62  0     1  0  0  0  0  0999 V2000
    7.0920   -0.8135    0.3355 S   0  0  0  0  0  0  0  0  0  0  0  0
    5.1004    2.3679   -0.6772 O   0  0  0  0  0  0  0  0  0  0  0  0
   -2.0617   -0.9517   -0.1616 N   0  0  0  0  0  0  0  0  0  0  0  0
    4.4840    0.5230    0.5870 N   0  0  0  0  0  0  0  0  0  0  0  0
   -1.7849   -2.1568   -0.6883 N   0  0  0  0  0  0  0  0  0  0  0  0
    1.5461   -0.9040    0.4719 C   0  0  2  0  0  0  0  0  0  0  0  0
    2.1345    0.3662   -0.1766 C   0  0  0  0  0  0  0  0  0  0  0  0
    3.1295    0.9348    0.8426 C   0  0  1  0  0  0  0  0  0  0  0  0
    0.0968   -1.1408    0.1146 C   0  0  0  0  0  0  0  0  0  0  0  0
    1.8023   -0.6683    1.9322 C   0  0  0  0  0  0  0  0  0  0  0  0
    2.6681    0.3316    2.1284 C   0  0  0  0  0  0  0  0  0  0  0  0
   -0.9689   -0.3021    0.3327 C   0  0  0  0  0  0  0  0  0  0  0  0
   -0.4648   -2.2667   -0.5168 C   0  0  0  0  0  0  0  0  0  0  0  0
   -7.4085    0.9538   -0.1694 C   0  0  0  0  0  0  0  0  0  0  0  0
   -3.3756   -0.4821   -0.1606 C   0  0  0  0  0  0  0  0  0  0  0  0
   -1.0340    1.0352    0.9565 C   0  0  0  0  0  0  0  0  0  0  0  0
   -6.0034    0.4541   -0.1662 C   0  0  0  0  0  0  0  0  0  0  0  0
    0.2271   -3.4826   -0.9796 C   0  0  0  0  0  0  0  0  0  0  0  0
   -4.3728   -1.1990    0.5010 C   0  0  0  0  0  0  0  0  0  0  0  0
   -3.6923    0.7026   -0.8250 C   0  0  0  0  0  0  0  0  0  0  0  0
    5.3714    1.2856   -0.1635 C   0  0  0  0  0  0  0  0  0  0  0  0
   -5.6866   -0.7308    0.4981 C   0  0  0  0  0  0  0  0  0  0  0  0
   -5.0062    1.1707   -0.8279 C   0  0  0  0  0  0  0  0  0  0  0  0
   -7.9167    1.2224    1.2810 C   0  0  0  0  0  0  0  0  0  0  0  0
   -8.3760   -0.0816   -0.8225 C   0  0  0  0  0  0  0  0  0  0  0  0
   -7.6439    2.2912   -0.9473 C   0  0  0  0  0  0  0  0  0  0  0  0
    6.7264    0.7087   -0.3584 C   0  0  0  0  0  0  0  0  0  0  0  0
    7.7975    1.2331   -1.0481 C   0  0  0  0  0  0  0  0  0  0  0  0
    8.9332    0.3738   -1.0063 C   0  0  0  0  0  0  0  0  0  0  0  0
    8.6870   -0.7745   -0.2863 C   0  0  0  0  0  0  0  0  0  0  0  0
    2.1411   -1.7743    0.1657 H   0  0  0  0  0  0  0  0  0  0  0  0
    1.3639    1.1178   -0.3845 H   0  0  0  0  0  0  0  0  0  0  0  0
    2.6033    0.1334   -1.1405 H   0  0  0  0  0  0  0  0  0  0  0  0
    3.0703    2.0279    0.8677 H   0  0  0  0  0  0  0  0  0  0  0  0
    1.3690   -1.2578    2.7281 H   0  0  0  0  0  0  0  0  0  0  0  0
    3.0091    0.6541    3.1021 H   0  0  0  0  0  0  0  0  0  0  0  0
    4.7936   -0.3791    0.9391 H   0  0  0  0  0  0  0  0  0  0  0  0
   -0.1807    1.2286    1.6104 H   0  0  0  0  0  0  0  0  0  0  0  0
   -1.9264    1.1487    1.5811 H   0  0  0  0  0  0  0  0  0  0  0  0
   -1.0444    1.8180    0.1915 H   0  0  0  0  0  0  0  0  0  0  0  0
    0.7162   -3.9888   -0.1410 H   0  0  0  0  0  0  0  0  0  0  0  0
   -0.4644   -4.1952   -1.4416 H   0  0  0  0  0  0  0  0  0  0  0  0
    0.9914   -3.2306   -1.7220 H   0  0  0  0  0  0  0  0  0  0  0  0
   -4.1427   -2.1225    1.0269 H   0  0  0  0  0  0  0  0  0  0  0  0
   -2.9331    1.2680   -1.3600 H   0  0  0  0  0  0  0  0  0  0  0  0
   -6.4430   -1.3083    1.0219 H   0  0  0  0  0  0  0  0  0  0  0  0
   -5.1976    2.0946   -1.3624 H   0  0  0  0  0  0  0  0  0  0  0  0
   -8.9394    1.6169    1.2786 H   0  0  0  0  0  0  0  0  0  0  0  0
   -7.9239    0.3102    1.8877 H   0  0  0  0  0  0  0  0  0  0  0  0
   -7.2754    1.9523    1.7891 H   0  0  0  0  0  0  0  0  0  0  0  0
   -9.4044    0.2967   -0.8514 H   0  0  0  0  0  0  0  0  0  0  0  0
   -8.0702   -0.3048   -1.8514 H   0  0  0  0  0  0  0  0  0  0  0  0
   -8.3955   -1.0280   -0.2709 H   0  0  0  0  0  0  0  0  0  0  0  0
   -8.6975    2.5929   -0.9041 H   0  0  0  0  0  0  0  0  0  0  0  0
   -7.0577    3.1129   -0.5198 H   0  0  0  0  0  0  0  0  0  0  0  0
   -7.3830    2.1906   -2.0073 H   0  0  0  0  0  0  0  0  0  0  0  0
    7.7751    2.1866   -1.5605 H   0  0  0  0  0  0  0  0  0  0  0  0
    9.8824    0.5869   -1.4802 H   0  0  0  0  0  0  0  0  0  0  0  0
    9.3674   -1.5924   -0.0957 H   0  0  0  0  0  0  0  0  0  0  0  0
  1 27  1  0  0  0  0
  1 30  1  0  0  0  0
  2 21  2  0  0  0  0
  3  5  1  0  0  0  0
  3 12  1  0  0  0  0
  3 15  1  0  0  0  0
  4  8  1  0  0  0  0
  4 21  1  0  0  0  0
  4 37  1  0  0  0  0
  5 13  2  0  0  0  0
  6  7  1  0  0  0  0
  6  9  1  0  0  0  0
  6 10  1  0  0  0  0
  6 31  1  0  0  0  0
  7  8  1  0  0  0  0
  7 32  1  0  0  0  0
  7 33  1  0  0  0  0
  8 11  1  0  0  0  0
  8 34  1  0  0  0  0
  9 12  2  0  0  0  0
  9 13  1  0  0  0  0
 10 11  2  0  0  0  0
 10 35  1  0  0  0  0
 11 36  1  0  0  0  0
 12 16  1  0  0  0  0
 13 18  1  0  0  0  0
 14 17  1  0  0  0  0
 14 24  1  0  0  0  0
 14 25  1  0  0  0  0
 14 26  1  0  0  0  0
 15 19  2  0  0  0  0
 15 20  1  0  0  0  0
 16 38  1  0  0  0  0
 16 39  1  0  0  0  0
 16 40  1  0  0  0  0
 17 22  2  0  0  0  0
 17 23  1  0  0  0  0
 18 41  1  0  0  0  0
 18 42  1  0  0  0  0
 18 43  1  0  0  0  0
 19 22  1  0  0  0  0
 19 44  1  0  0  0  0
 20 23  2  0  0  0  0
 20 45  1  0  0  0  0
 21 27  1  0  0  0  0
 22 46  1  0  0  0  0
 23 47  1  0  0  0  0
 24 48  1  0  0  0  0
 24 49  1  0  0  0  0
 24 50  1  0  0  0  0
 25 51  1  0  0  0  0
 25 52  1  0  0  0  0
 25 53  1  0  0  0  0
 26 54  1  0  0  0  0
 26 55  1  0  0  0  0
 26 56  1  0  0  0  0
 27 28  2  0  0  0  0
 28 29  1  0  0  0  0
 28 57  1  0  0  0  0
 29 30  2  0  0  0  0
 29 58  1  0  0  0  0
 30 59  1  0  0  0  0
M  END
> <PUBCHEM_COMPOUND_CID>
40777706

> <PUBCHEM_CONFORMER_RMSD>
0.8

> <PUBCHEM_CONFORMER_DIVERSEORDER>
1
103
97
141
111
120
6
21
51
22
56
131
84
8
17
123
72
43
57
91
13
133
45
137
100
28
95
93
121
124
73
113
30
125
38
134
132
66
105
101
24
142
90
80
77
23
138
71
74
44
65
32
34
140
37
36
49
139
94
136
108
79
106
135
70
47
39
143
29
3
81
55
59
76
128
117
89
4
127
46
118
75
86
11
144
114
35
9
64
99
50
18
87
130
53
15
33
112
119
12
98
129
122
109
52
68
26
27
58
88
54
126
61
82
102
14
92
20
7
67
42
115
63
104
2
10
107
16
41
19
69
78
25
5
110
85
48
96
116
40
62
83
60
31

> <PUBCHEM_MMFF94_PARTIAL_CHARGES>
36
1 -0.08
10 -0.29
11 -0.29
12 -0.33
13 0.11
14 0.14
15 -0.02
16 0.18
17 -0.14
18 0.18
19 -0.15
2 -0.57
20 -0.15
21 0.71
22 -0.15
23 -0.15
27 -0.05
28 -0.15
29 -0.15
3 0.59
30 -0.11
35 0.15
36 0.15
37 0.37
4 -0.73
44 0.15
45 0.15
46 0.15
47 0.15
5 -0.71
57 0.15
58 0.15
59 0.15
6 0.32
8 0.44
9 -0.18

> <PUBCHEM_EFFECTIVE_ROTOR_COUNT>
6.6

> <PUBCHEM_PHARMACOPHORE_FEATURES>
8
1 2 acceptor
1 4 donor
1 5 acceptor
4 14 24 25 26 hydrophobe
5 1 27 28 29 30 rings
5 3 5 9 12 13 rings
5 6 7 8 10 11 rings
6 15 17 19 20 22 23 rings

> <PUBCHEM_HEAVY_ATOM_COUNT>
30

> <PUBCHEM_ATOM_DEF_STEREO_COUNT>
2

> <PUBCHEM_ATOM_UDEF_STEREO_COUNT>
0

> <PUBCHEM_BOND_DEF_STEREO_COUNT>
0

> <PUBCHEM_BOND_UDEF_STEREO_COUNT>
0

> <PUBCHEM_ISOTOPIC_ATOM_COUNT>
0

> <PUBCHEM_COMPONENT_COUNT>
1

> <PUBCHEM_CACTVS_TAUTO_COUNT>
2

> <PUBCHEM_CONFORMER_ID>
026E37EA00000001

> <PUBCHEM_MMFF94_ENERGY>
83.806

> <PUBCHEM_FEATURE_SELFOVERLAP>
40.597

> <PUBCHEM_SHAPE_FINGERPRINT>
10 15 17821446846918657137
10165383 225 18342739607192414967
10369192 42 18335698339007196725
10391435 84 11887662983934597148
10483366 6 18131071528496753384
106641 1 13623533463070431809
10669705 176 18343298202196977327
10670039 82 17918277519861600721
10674148 151 17060337409748270352
10883706 17 13038605406361384629
10904742 90 18113898269098843946
11135609 127 18200307862278408624
11135609 99 10303803298605357368
11408170 108 14692306014984675900
12643181 29 11599998861051616277
14117953 113 18412829083811802468
14150022 121 14056988400334549871
14257110 125 18411981360641685509
14933364 13 18040152929165268584
15183329 4 18202849855455906170
15188451 53 11383839268639329972
15301273 46 14562805530336813538
15392192 104 14923946760431336112
15461852 350 18341607153645695871
15728490 51 8574707992971384304
1577012 14 18187356653851167722
15840311 113 17822012055429187156
15849732 13 18113620101452316004
15927050 60 18412258471595390374
15961568 22 18187081724652965165
16992610 120 16588037805814944282
18335252 114 18409441501244899548
19309040 13 16881346967850779030
19611394 137 17896613958581817203
20505436 4 18040710381429332610
21033648 29 18271230742038766121
21223535 225 16486988266993666417
21585482 111 18115584825974872517
21781055 127 17774725247020744738
21792961 116 18272938223783683979
22149856 69 13046213919250236694
22224240 67 14345794955044169488
23559900 14 17702377537401779304
23576562 1 18196080265432849029
24771293 8 18260828164952450605
249057 3 18341613750625732828
2747138 104 12613033855608931744
3004659 81 18343303708951296218
335352 9 18272931643861903788
3711267 37 18040445390437189036
4073 2 17385445423139165059
4149490 64 12966547820617355031
45266715 3 16486988276005646462
474113 269 16271655478100025638
5758199 1 16298385764526264936
59682541 35 11386370361581130116
6086070 43 17346310548394559995
6126387 218 8862950476830777103
6438161 24 12103843471161511581
9663363 56 16917348131334885520
9689198 14 17894915143975510544
9953998 17 15357700803501739929
9962374 69 11386666139031168553

> <PUBCHEM_SHAPE_MULTIPOLES>
600.42
28.11
2.24
1.3
11.05
1.2
-0.49
-13.33
7.04
-0.58
0.78
0.31
-0.11
-0.28

> <PUBCHEM_SHAPE_SELFOVERLAP>
1284.536

> <PUBCHEM_SHAPE_VOLUME>
338

> <PUBCHEM_COORDINATE_TYPE>
2
5
10

$$$$
