71693190
  -OEChem-12032416303D

 67 70  0     1  0  0  0  0  0999 V2000
   -5.3854    0.2373   -1.1767 O   0  0  0  0  0  0  0  0  0  0  0  0
   -5.8952    0.3293    1.0661 O   0  0  0  0  0  0  0  0  0  0  0  0
    2.1269   -2.5986    1.1632 N   0  0  0  0  0  0  0  0  0  0  0  0
   -0.5802    1.8430   -1.4688 N   0  0  0  0  0  0  0  0  0  0  0  0
    0.1777    2.3421    0.5601 N   0  0  0  0  0  0  0  0  0  0  0  0
   -2.3460   -2.5332   -1.1355 N   0  0  0  0  0  0  0  0  0  0  0  0
    3.6071   -0.6273   -0.4141 C   0  0  1  0  0  0  0  0  0  0  0  0
    3.3623   -0.4772    1.1054 C   0  0  1  0  0  0  0  0  0  0  0  0
    2.7267    0.3543   -1.2003 C   0  0  0  0  0  0  0  0  0  0  0  0
    2.9362    1.8276   -0.7895 C   0  0  2  0  0  0  0  0  0  0  0  0
    5.0904   -0.4439   -0.7627 C   0  0  0  0  0  0  0  0  0  0  0  0
    3.1166    2.0077    0.7103 C   0  0  0  0  0  0  0  0  0  0  0  0
    3.2939    0.9642    1.5414 C   0  0  0  0  0  0  0  0  0  0  0  0
    2.0845   -1.1982    1.5468 C   0  0  0  0  0  0  0  0  0  0  0  0
    1.7809    2.6627   -1.3556 C   0  0  0  0  0  0  0  0  0  0  0  0
    5.2556   -0.1599   -2.2521 C   0  0  0  0  0  0  0  0  0  0  0  0
    5.8892   -1.6780   -0.3554 C   0  0  0  0  0  0  0  0  0  0  0  0
    3.1507    3.4143    1.2419 C   0  0  0  0  0  0  0  0  0  0  0  0
    0.4720    2.2910   -0.7196 C   0  0  0  0  0  0  0  0  0  0  0  0
    0.9101   -3.2912    1.5702 C   0  0  0  0  0  0  0  0  0  0  0  0
   -1.6230    1.5880   -0.6155 C   0  0  0  0  0  0  0  0  0  0  0  0
   -1.1251    1.9074    0.6446 C   0  0  0  0  0  0  0  0  0  0  0  0
   -0.2298   -3.0255    0.6231 C   0  0  0  0  0  0  0  0  0  0  0  0
   -2.9194    1.1197   -0.8313 C   0  0  0  0  0  0  0  0  0  0  0  0
   -1.9560    1.7568    1.7677 C   0  0  0  0  0  0  0  0  0  0  0  0
   -1.4070   -2.4519    1.0907 C   0  0  0  0  0  0  0  0  0  0  0  0
   -0.1094   -3.3532   -0.7229 C   0  0  0  0  0  0  0  0  0  0  0  0
   -3.7328    0.9758    0.2977 C   0  0  0  0  0  0  0  0  0  0  0  0
   -3.2616    1.2882    1.5750 C   0  0  0  0  0  0  0  0  0  0  0  0
   -2.4261   -2.2282    0.1791 C   0  0  0  0  0  0  0  0  0  0  0  0
   -1.1866   -3.0890   -1.5534 C   0  0  0  0  0  0  0  0  0  0  0  0
   -5.0954    0.4917    0.1357 C   0  0  0  0  0  0  0  0  0  0  0  0
   -6.7017   -0.2458   -1.4657 C   0  0  0  0  0  0  0  0  0  0  0  0
    3.3257   -1.6324   -0.7529 H   0  0  0  0  0  0  0  0  0  0  0  0
    4.1943   -0.9306    1.6568 H   0  0  0  0  0  0  0  0  0  0  0  0
    1.6890    0.0526   -1.0097 H   0  0  0  0  0  0  0  0  0  0  0  0
    2.8232    0.2412   -2.2857 H   0  0  0  0  0  0  0  0  0  0  0  0
    3.8563    2.1993   -1.2560 H   0  0  0  0  0  0  0  0  0  0  0  0
    5.5100    0.4129   -0.2209 H   0  0  0  0  0  0  0  0  0  0  0  0
    3.4188    1.1451    2.6069 H   0  0  0  0  0  0  0  0  0  0  0  0
    1.2097   -0.7018    1.1096 H   0  0  0  0  0  0  0  0  0  0  0  0
    1.9836   -1.1139    2.6374 H   0  0  0  0  0  0  0  0  0  0  0  0
    1.7255    2.5229   -2.4430 H   0  0  0  0  0  0  0  0  0  0  0  0
    1.9564    3.7336   -1.1987 H   0  0  0  0  0  0  0  0  0  0  0  0
    4.9175    0.8345   -2.5507 H   0  0  0  0  0  0  0  0  0  0  0  0
    6.3182   -0.1977   -2.5223 H   0  0  0  0  0  0  0  0  0  0  0  0
    4.7485   -0.9119   -2.8671 H   0  0  0  0  0  0  0  0  0  0  0  0
    6.9440   -1.5592   -0.6280 H   0  0  0  0  0  0  0  0  0  0  0  0
    5.5187   -2.5774   -0.8594 H   0  0  0  0  0  0  0  0  0  0  0  0
    5.8593   -1.8581    0.7223 H   0  0  0  0  0  0  0  0  0  0  0  0
    3.8836    4.0077    0.6849 H   0  0  0  0  0  0  0  0  0  0  0  0
    3.4467    3.4461    2.2964 H   0  0  0  0  0  0  0  0  0  0  0  0
    2.1779    3.9058    1.1660 H   0  0  0  0  0  0  0  0  0  0  0  0
    2.9283   -3.0399    1.6144 H   0  0  0  0  0  0  0  0  0  0  0  0
    0.6422   -3.0560    2.6080 H   0  0  0  0  0  0  0  0  0  0  0  0
    1.1015   -4.3719    1.5527 H   0  0  0  0  0  0  0  0  0  0  0  0
   -0.5908    1.7186   -2.4725 H   0  0  0  0  0  0  0  0  0  0  0  0
   -3.2433    0.8883   -1.8395 H   0  0  0  0  0  0  0  0  0  0  0  0
   -1.5984    1.9959    2.7641 H   0  0  0  0  0  0  0  0  0  0  0  0
   -1.5393   -2.1901    2.1349 H   0  0  0  0  0  0  0  0  0  0  0  0
    0.7915   -3.8055   -1.1233 H   0  0  0  0  0  0  0  0  0  0  0  0
   -3.8997    1.1728    2.4483 H   0  0  0  0  0  0  0  0  0  0  0  0
   -3.3771   -1.8240    0.5028 H   0  0  0  0  0  0  0  0  0  0  0  0
   -1.1435   -3.3261   -2.6113 H   0  0  0  0  0  0  0  0  0  0  0  0
   -6.7791   -0.3979   -2.5454 H   0  0  0  0  0  0  0  0  0  0  0  0
   -7.4497    0.4911   -1.1586 H   0  0  0  0  0  0  0  0  0  0  0  0
   -6.8710   -1.2019   -0.9616 H   0  0  0  0  0  0  0  0  0  0  0  0
  1 32  1  0  0  0  0
  1 33  1  0  0  0  0
  2 32  2  0  0  0  0
  3 14  1  0  0  0  0
  3 20  1  0  0  0  0
  3 54  1  0  0  0  0
  4 19  1  0  0  0  0
  4 21  1  0  0  0  0
  4 57  1  0  0  0  0
  5 19  2  0  0  0  0
  5 22  1  0  0  0  0
  6 30  2  0  0  0  0
  6 31  1  0  0  0  0
  7  8  1  0  0  0  0
  7  9  1  0  0  0  0
  7 11  1  0  0  0  0
  7 34  1  0  0  0  0
  8 13  1  0  0  0  0
  8 14  1  0  0  0  0
  8 35  1  0  0  0  0
  9 10  1  0  0  0  0
  9 36  1  0  0  0  0
  9 37  1  0  0  0  0
 10 12  1  0  0  0  0
 10 15  1  0  0  0  0
 10 38  1  0  0  0  0
 11 16  1  0  0  0  0
 11 17  1  0  0  0  0
 11 39  1  0  0  0  0
 12 13  2  0  0  0  0
 12 18  1  0  0  0  0
 13 40  1  0  0  0  0
 14 41  1  0  0  0  0
 14 42  1  0  0  0  0
 15 19  1  0  0  0  0
 15 43  1  0  0  0  0
 15 44  1  0  0  0  0
 16 45  1  0  0  0  0
 16 46  1  0  0  0  0
 16 47  1  0  0  0  0
 17 48  1  0  0  0  0
 17 49  1  0  0  0  0
 17 50  1  0  0  0  0
 18 51  1  0  0  0  0
 18 52  1  0  0  0  0
 18 53  1  0  0  0  0
 20 23  1  0  0  0  0
 20 55  1  0  0  0  0
 20 56  1  0  0  0  0
 21 22  2  0  0  0  0
 21 24  1  0  0  0  0
 22 25  1  0  0  0  0
 23 26  2  0  0  0  0
 23 27  1  0  0  0  0
 24 28  2  0  0  0  0
 24 58  1  0  0  0  0
 25 29  2  0  0  0  0
 25 59  1  0  0  0  0
 26 30  1  0  0  0  0
 26 60  1  0  0  0  0
 27 31  2  0  0  0  0
 27 61  1  0  0  0  0
 28 29  1  0  0  0  0
 28 32  1  0  0  0  0
 29 62  1  0  0  0  0
 30 63  1  0  0  0  0
 31 64  1  0  0  0  0
 33 65  1  0  0  0  0
 33 66  1  0  0  0  0
 33 67  1  0  0  0  0
M  END
> <PUBCHEM_COMPOUND_CID>
71693190

> <PUBCHEM_CONFORMER_RMSD>
1

> <PUBCHEM_CONFORMER_DIVERSEORDER>
11
24
65
63
59
100
45
107
76
88
39
31
22
75
28
37
70
54
21
20
38
92
35
58
91
103
26
99
106
41
52
98
87
49
40
78
79
56
3
14
16
60
71
27
77
110
90
64
94
6
44
102
81
12
67
105
97
89
61
34
53
46
86
18
43
101
82
15
80
51
55
84
108
93
96
25
83
111
104
74
73
5
29
36
19
7
42
68
50
30
62
95
66
47
2
23
85
57
69
72
33
109
48
9
4
8
1
17
10
13
32

> <PUBCHEM_MMFF94_PARTIAL_CHARGES>
38
1 -0.43
10 0.14
12 -0.28
13 -0.29
14 0.27
15 0.18
18 0.14
19 0.01
2 -0.57
20 0.41
21 -0.15
22 0.23
23 -0.14
24 -0.15
25 -0.15
26 -0.15
27 -0.15
28 0.09
29 -0.15
3 -0.9
30 0.16
31 0.16
32 0.63
33 0.28
4 0.03
40 0.15
5 -0.57
54 0.36
57 0.27
58 0.15
59 0.15
6 -0.62
60 0.15
61 0.15
62 0.15
63 0.15
64 0.15
8 0.14

> <PUBCHEM_EFFECTIVE_ROTOR_COUNT>
9.8

> <PUBCHEM_PHARMACOPHORE_FEATURES>
11
1 2 acceptor
1 3 cation
1 3 donor
1 4 donor
1 6 acceptor
3 11 16 17 hydrophobe
3 4 5 19 cation
5 4 5 19 21 22 rings
6 21 22 24 25 28 29 rings
6 6 23 26 27 30 31 rings
6 7 8 9 10 12 13 rings

> <PUBCHEM_HEAVY_ATOM_COUNT>
33

> <PUBCHEM_ATOM_DEF_STEREO_COUNT>
3

> <PUBCHEM_ATOM_UDEF_STEREO_COUNT>
0

> <PUBCHEM_BOND_DEF_STEREO_COUNT>
0

> <PUBCHEM_BOND_UDEF_STEREO_COUNT>
0

> <PUBCHEM_ISOTOPIC_ATOM_COUNT>
0

> <PUBCHEM_COMPONENT_COUNT>
1

> <PUBCHEM_CACTVS_TAUTO_COUNT>
7

> <PUBCHEM_CONFORMER_ID>
0445F3860000000B

> <PUBCHEM_MMFF94_ENERGY>
74.12

> <PUBCHEM_FEATURE_SELFOVERLAP>
55.928

> <PUBCHEM_SHAPE_FINGERPRINT>
10816530 23 17272842349762699060
1100329 8 18410015463351549002
11112662 9 18202565064216063879
11479125 193 15794862340280475742
11513181 2 17843971330097833791
11578080 2 17560229371201250018
12156800 1 16125522840083590183
13122387 1 18192990409597659882
1361 2 18260822709626293049
13782708 43 13829837063916998413
14117953 113 17690267223758713271
14840074 17 18261118452447242877
15001296 14 18337942502353224297
15297060 5 17703231720113141851
16112460 7 18412550916271002880
17138139 8 17912906560394631967
17492 54 18260827068991614131
19319366 153 17967817116005444426
20028762 73 18131347496988183503
20764821 26 18342742952914007390
23559900 14 18272093858867425972
3052486 1 18261109716816065826
3298306 158 18260820467732356013
338550 245 18189335834662741197
35225 105 18268695156867201174
354706 35 16319760609814676879
3633792 109 18412256234238630501
463206 1 18409727400306593097
469060 322 17385995234518608423
6287921 2 17699290958796266807
9896288 288 17622441641908529912

> <PUBCHEM_SHAPE_MULTIPOLES>
647.46
11.46
4.4
1.89
6.91
2.17
-0.06
-0.61
-3.42
-1.03
0.56
-0.44
0.04
-0.48

> <PUBCHEM_SHAPE_SELFOVERLAP>
1385.602

> <PUBCHEM_SHAPE_VOLUME>
356.4

> <PUBCHEM_COORDINATE_TYPE>
2
5
10

$$$$
