51136908
  -OEChem-12032416223D

 49 53  0     1  0  0  0  0  0999 V2000
   -2.9325    1.1704   -2.3882 F   0  0  0  0  0  0  0  0  0  0  0  0
   -2.1692   -0.6490    2.1015 O   0  0  0  0  0  0  0  0  0  0  0  0
   -4.2580   -0.8161   -0.7194 N   0  0  1  0  0  0  0  0  0  0  0  0
   -1.2564   -1.1928    0.1297 N   0  0  0  0  0  0  0  0  0  0  0  0
   -0.8037   -0.3569    2.2106 N   0  0  0  0  0  0  0  0  0  0  0  0
    3.2931    0.0666    1.2870 N   0  0  0  0  0  0  0  0  0  0  0  0
    6.9109    0.2825   -1.7424 N   0  0  0  0  0  0  0  0  0  0  0  0
    7.3797   -0.0876    0.5922 N   0  0  0  0  0  0  0  0  0  0  0  0
   -3.7640   -1.5323    0.4736 C   0  0  1  0  0  0  0  0  0  0  0  0
   -3.8884   -3.0243    0.1136 C   0  0  0  0  0  0  0  0  0  0  0  0
   -4.5171   -3.0479   -1.2724 C   0  0  0  0  0  0  0  0  0  0  0  0
   -5.2187   -1.7082   -1.3687 C   0  0  0  0  0  0  0  0  0  0  0  0
   -4.8396    0.4836   -0.4094 C   0  0  0  0  0  0  0  0  0  0  0  0
   -2.3505   -1.1368    0.8462 C   0  0  0  0  0  0  0  0  0  0  0  0
   -3.7827    1.5357   -0.2021 C   0  0  0  0  0  0  0  0  0  0  0  0
   -2.8736    1.8245   -1.2198 C   0  0  0  0  0  0  0  0  0  0  0  0
   -3.7137    2.2221    1.0101 C   0  0  0  0  0  0  0  0  0  0  0  0
   -0.3341   -0.7041    1.0086 C   0  0  0  0  0  0  0  0  0  0  0  0
   -1.8957    2.7998   -1.0254 C   0  0  0  0  0  0  0  0  0  0  0  0
   -2.7356    3.1975    1.2048 C   0  0  0  0  0  0  0  0  0  0  0  0
    1.0502   -0.5770    0.6549 C   0  0  0  0  0  0  0  0  0  0  0  0
   -1.8266    3.4863    0.1870 C   0  0  0  0  0  0  0  0  0  0  0  0
    1.5044   -0.9500   -0.6054 C   0  0  0  0  0  0  0  0  0  0  0  0
    1.9763   -0.0789    1.5569 C   0  0  0  0  0  0  0  0  0  0  0  0
    2.8520   -0.8152   -0.9203 C   0  0  0  0  0  0  0  0  0  0  0  0
    3.6977   -0.3064    0.0521 C   0  0  0  0  0  0  0  0  0  0  0  0
    5.1086   -0.1394   -0.2038 C   0  0  0  0  0  0  0  0  0  0  0  0
    5.5998    0.1234   -1.4662 C   0  0  0  0  0  0  0  0  0  0  0  0
    6.0543   -0.2353    0.7967 C   0  0  0  0  0  0  0  0  0  0  0  0
    7.7331    0.1659   -0.6822 C   0  0  0  0  0  0  0  0  0  0  0  0
   -4.4198   -1.3494    1.3367 H   0  0  0  0  0  0  0  0  0  0  0  0
   -2.9358   -3.5649    0.1183 H   0  0  0  0  0  0  0  0  0  0  0  0
   -4.5580   -3.5202    0.8271 H   0  0  0  0  0  0  0  0  0  0  0  0
   -5.2023   -3.8909   -1.4017 H   0  0  0  0  0  0  0  0  0  0  0  0
   -3.7330   -3.1250   -2.0359 H   0  0  0  0  0  0  0  0  0  0  0  0
   -6.1742   -1.7394   -0.8298 H   0  0  0  0  0  0  0  0  0  0  0  0
   -5.4054   -1.4261   -2.4095 H   0  0  0  0  0  0  0  0  0  0  0  0
   -5.4505    0.8301   -1.2549 H   0  0  0  0  0  0  0  0  0  0  0  0
   -5.5265    0.4279    0.4453 H   0  0  0  0  0  0  0  0  0  0  0  0
   -4.4137    2.0062    1.8127 H   0  0  0  0  0  0  0  0  0  0  0  0
   -1.1874    3.0236   -1.8175 H   0  0  0  0  0  0  0  0  0  0  0  0
   -2.6808    3.7309    2.1492 H   0  0  0  0  0  0  0  0  0  0  0  0
   -1.0643    4.2448    0.3388 H   0  0  0  0  0  0  0  0  0  0  0  0
    0.8321   -1.3517   -1.3591 H   0  0  0  0  0  0  0  0  0  0  0  0
    1.7035    0.2348    2.5601 H   0  0  0  0  0  0  0  0  0  0  0  0
    3.1948   -1.1289   -1.9005 H   0  0  0  0  0  0  0  0  0  0  0  0
    4.9589    0.2428   -2.3340 H   0  0  0  0  0  0  0  0  0  0  0  0
    5.7895   -0.4482    1.8281 H   0  0  0  0  0  0  0  0  0  0  0  0
    8.7917    0.2891   -0.8752 H   0  0  0  0  0  0  0  0  0  0  0  0
  1 16  1  0  0  0  0
  2  5  1  0  0  0  0
  2 14  1  0  0  0  0
  3  9  1  0  0  0  0
  3 12  1  0  0  0  0
  3 13  1  0  0  0  0
  4 14  2  0  0  0  0
  4 18  1  0  0  0  0
  5 18  2  0  0  0  0
  6 24  1  0  0  0  0
  6 26  2  0  0  0  0
  7 28  2  0  0  0  0
  7 30  1  0  0  0  0
  8 29  1  0  0  0  0
  8 30  2  0  0  0  0
  9 10  1  0  0  0  0
  9 14  1  0  0  0  0
  9 31  1  0  0  0  0
 10 11  1  0  0  0  0
 10 32  1  0  0  0  0
 10 33  1  0  0  0  0
 11 12  1  0  0  0  0
 11 34  1  0  0  0  0
 11 35  1  0  0  0  0
 12 36  1  0  0  0  0
 12 37  1  0  0  0  0
 13 15  1  0  0  0  0
 13 38  1  0  0  0  0
 13 39  1  0  0  0  0
 15 16  1  0  0  0  0
 15 17  2  0  0  0  0
 16 19  2  0  0  0  0
 17 20  1  0  0  0  0
 17 40  1  0  0  0  0
 18 21  1  0  0  0  0
 19 22  1  0  0  0  0
 19 41  1  0  0  0  0
 20 22  2  0  0  0  0
 20 42  1  0  0  0  0
 21 23  1  0  0  0  0
 21 24  2  0  0  0  0
 22 43  1  0  0  0  0
 23 25  2  0  0  0  0
 23 44  1  0  0  0  0
 24 45  1  0  0  0  0
 25 26  1  0  0  0  0
 25 46  1  0  0  0  0
 26 27  1  0  0  0  0
 27 28  1  0  0  0  0
 27 29  2  0  0  0  0
 28 47  1  0  0  0  0
 29 48  1  0  0  0  0
 30 49  1  0  0  0  0
M  END
> <PUBCHEM_COMPOUND_CID>
51136908

> <PUBCHEM_CONFORMER_RMSD>
0.8

> <PUBCHEM_CONFORMER_DIVERSEORDER>
1
133
19
136
159
154
28
120
152
63
4
21
148
105
76
23
96
114
140
13
108
153
53
101
130
121
58
24
149
33
142
86
47
29
27
5
124
12
110
135
141
145
43
99
132
116
41
125
150
119
161
10
134
22
78
109
51
15
88
16
147
7
137
30
156
6
42
128
75
117
18
139
90
38
102
118
11
3
100
84
94
17
98
67
122
104
151
69
70
60
50
91
64
72
20
93
127
129
2
107
81
158
37
111
85
113
112
138
143
61
83
126
74
79
82
25
95
68
131
57
55
44
103
9
146
65
71
97
48
155
35
123
62
92
106
80
36
66
73
34
87
46
144
77
160
89
115
59
52
56
8
49
39
40
26
54
45
32
14
31
157

> <PUBCHEM_MMFF94_PARTIAL_CHARGES>
37
1 -0.19
12 0.27
13 0.41
14 0.3
15 -0.14
16 0.19
17 -0.15
18 0.46
19 -0.15
2 -0.02
20 -0.15
21 0.05
22 -0.15
23 -0.15
24 0.16
25 -0.15
26 0.31
28 0.16
29 0.16
3 -0.81
30 0.47
4 -0.57
40 0.15
41 0.15
42 0.15
43 0.15
44 0.15
45 0.15
46 0.15
47 0.15
48 0.15
49 0.15
5 -0.41
6 -0.62
7 -0.62
8 -0.62
9 0.45

> <PUBCHEM_EFFECTIVE_ROTOR_COUNT>
6

> <PUBCHEM_PHARMACOPHORE_FEATURES>
10
1 3 cation
1 6 acceptor
1 7 acceptor
3 4 5 18 cation
3 7 8 30 cation
5 2 4 5 14 18 rings
5 3 9 10 11 12 rings
6 15 16 17 19 20 22 rings
6 6 21 23 24 25 26 rings
6 7 8 27 28 29 30 rings

> <PUBCHEM_HEAVY_ATOM_COUNT>
30

> <PUBCHEM_ATOM_DEF_STEREO_COUNT>
1

> <PUBCHEM_ATOM_UDEF_STEREO_COUNT>
0

> <PUBCHEM_BOND_DEF_STEREO_COUNT>
0

> <PUBCHEM_BOND_UDEF_STEREO_COUNT>
0

> <PUBCHEM_ISOTOPIC_ATOM_COUNT>
0

> <PUBCHEM_COMPONENT_COUNT>
1

> <PUBCHEM_CACTVS_TAUTO_COUNT>
1

> <PUBCHEM_CONFORMER_ID>
030C498C00000001

> <PUBCHEM_MMFF94_ENERGY>
68.2517

> <PUBCHEM_FEATURE_SELFOVERLAP>
50.749

> <PUBCHEM_SHAPE_FINGERPRINT>
10 15 12829491480666241958
10087517 78 18260550004819962980
10291535 26 18336272270933589249
10454371 7 18410300211626583260
10670039 82 18333729122250632738
11101153 10 18265058109957912116
11315181 36 17530969124549528790
11477941 20 18410567426953279332
11578080 2 18056779636172725486
12082328 90 18202003210212292284
12107698 1 18335699485742547212
12788726 201 18261943099148240923
13761468 95 17826513262511769348
13782708 43 17917995005719088006
13947920 75 18260544524156512195
14068700 675 18335699502526816725
14713325 29 18342740685224139255
14856354 85 18342461456193370343
15183329 4 17821729417180690802
15324884 4 17770189942667305851
15419008 47 18060697316710047688
15461852 350 18341897403446021494
15876981 60 18334299807387433445
16992828 155 17678172690063968717
17093844 174 11241969308797868654
17686467 74 18192709162750114272
17913733 40 13840265871376613776
17980427 23 17822023007706093942
19489759 90 18333449850413082890
20771845 65 17700414969450444579
20775438 99 16897903559613216199
21236236 1 18260268538406455684
21927370 108 18188223090921202131
23557571 272 18342172280709536387
249057 25 17967816055427590300
255183 451 17835797874543396343
3610482 184 18261970543709524884
4169191 19 16588884502655572172
497634 4 17632025199102464851
531348 171 18269840830698394806
7237137 82 18410011031135275200

> <PUBCHEM_SHAPE_MULTIPOLES>
574.36
16.71
3.16
1.77
35.6
1.6
0.02
-2.84
-5.46
-7.5
-0.34
-0.19
0.12
-0.66

> <PUBCHEM_SHAPE_SELFOVERLAP>
1273.251

> <PUBCHEM_SHAPE_VOLUME>
309

> <PUBCHEM_COORDINATE_TYPE>
2
5
10

$$$$
