28962421
  -OEChem-12032416413D

 72 73  0     1  0  0  0  0  0999 V2000
   -0.2680    1.9117   -0.4036 O   0  0  0  0  0  0  0  0  0  0  0  0
    3.5816   -1.4935   -1.5049 O   0  0  0  0  0  0  0  0  0  0  0  0
   -6.5315    0.4491    2.0903 O   0  0  0  0  0  0  0  0  0  0  0  0
    3.9568   -2.6020    1.1640 O   0  0  0  0  0  0  0  0  0  0  0  0
    4.1664    3.6639    0.9629 O   0  0  0  0  0  0  0  0  0  0  0  0
   -5.5233    0.6636    0.0034 N   0  0  0  0  0  0  0  0  0  0  0  0
    4.0415    0.0588    0.1483 N   0  0  0  0  0  0  0  0  0  0  0  0
   -1.8636   -1.5562   -0.4615 C   0  0  1  0  0  0  0  0  0  0  0  0
   -1.7327   -0.0238   -0.1721 C   0  0  2  0  0  0  0  0  0  0  0  0
   -3.0838    0.7192   -0.4722 C   0  0  1  0  0  0  0  0  0  0  0  0
   -0.4732    0.5747   -0.8622 C   0  0  2  0  0  0  0  0  0  0  0  0
   -0.5560   -2.2727   -0.0494 C   0  0  0  0  0  0  0  0  0  0  0  0
    0.8171   -0.2100   -0.5286 C   0  0  1  0  0  0  0  0  0  0  0  0
   -3.0093   -2.1359    0.3998 C   0  0  0  0  0  0  0  0  0  0  0  0
   -4.2428    0.0793    0.3427 C   0  0  2  0  0  0  0  0  0  0  0  0
    0.6744   -1.7153   -0.7530 C   0  0  0  0  0  0  0  0  0  0  0  0
   -4.3416   -1.4363    0.1712 C   0  0  0  0  0  0  0  0  0  0  0  0
   -2.1461   -1.8565   -1.9554 C   0  0  0  0  0  0  0  0  0  0  0  0
    2.0222    0.3139   -1.3193 C   0  0  2  0  0  0  0  0  0  0  0  0
   -3.0344    2.2287   -0.1813 C   0  0  0  0  0  0  0  0  0  0  0  0
    1.7518    0.1666   -2.8176 C   0  0  0  0  0  0  0  0  0  0  0  0
    3.2829   -0.4518   -0.9103 C   0  0  0  0  0  0  0  0  0  0  0  0
   -6.5569    0.7963    0.9124 C   0  0  0  0  0  0  0  0  0  0  0  0
   -7.7651    1.4580    0.3054 C   0  0  0  0  0  0  0  0  0  0  0  0
    5.2371   -0.6590    0.5774 C   0  0  0  0  0  0  0  0  0  0  0  0
    3.7786    1.2973    0.8785 C   0  0  0  0  0  0  0  0  0  0  0  0
    4.9186   -1.6780    1.6562 C   0  0  0  0  0  0  0  0  0  0  0  0
    4.4805    2.4814    0.2389 C   0  0  0  0  0  0  0  0  0  0  0  0
    3.6211   -3.5760    2.1427 C   0  0  0  0  0  0  0  0  0  0  0  0
    4.7979    4.8044    0.3974 C   0  0  0  0  0  0  0  0  0  0  0  0
   -1.5691    0.0938    0.9113 H   0  0  0  0  0  0  0  0  0  0  0  0
   -3.3120    0.6218   -1.5412 H   0  0  0  0  0  0  0  0  0  0  0  0
   -0.6717    0.6260   -1.9341 H   0  0  0  0  0  0  0  0  0  0  0  0
   -0.6307   -3.3484   -0.2548 H   0  0  0  0  0  0  0  0  0  0  0  0
   -0.4099   -2.1788    1.0354 H   0  0  0  0  0  0  0  0  0  0  0  0
    1.0293   -0.0634    0.5402 H   0  0  0  0  0  0  0  0  0  0  0  0
   -2.7510   -2.0491    1.4638 H   0  0  0  0  0  0  0  0  0  0  0  0
   -3.1296   -3.2083    0.2004 H   0  0  0  0  0  0  0  0  0  0  0  0
   -4.0600    0.2818    1.4072 H   0  0  0  0  0  0  0  0  0  0  0  0
    1.5346   -2.2525   -0.3401 H   0  0  0  0  0  0  0  0  0  0  0  0
    0.6166   -1.9915   -1.8070 H   0  0  0  0  0  0  0  0  0  0  0  0
   -4.7286   -1.6797   -0.8259 H   0  0  0  0  0  0  0  0  0  0  0  0
   -5.0791   -1.8424    0.8757 H   0  0  0  0  0  0  0  0  0  0  0  0
   -3.0984   -1.4443   -2.2987 H   0  0  0  0  0  0  0  0  0  0  0  0
   -2.1859   -2.9383   -2.1297 H   0  0  0  0  0  0  0  0  0  0  0  0
   -1.3764   -1.4496   -2.6171 H   0  0  0  0  0  0  0  0  0  0  0  0
    2.1665    1.3819   -1.1373 H   0  0  0  0  0  0  0  0  0  0  0  0
   -2.6503    2.4272    0.8246 H   0  0  0  0  0  0  0  0  0  0  0  0
   -4.0232    2.6925   -0.2555 H   0  0  0  0  0  0  0  0  0  0  0  0
   -2.4122    2.7516   -0.9130 H   0  0  0  0  0  0  0  0  0  0  0  0
   -5.6816    0.9336   -0.9635 H   0  0  0  0  0  0  0  0  0  0  0  0
   -0.1372    1.8841    0.5596 H   0  0  0  0  0  0  0  0  0  0  0  0
    1.5686   -0.8559   -3.1534 H   0  0  0  0  0  0  0  0  0  0  0  0
    2.6435    0.4942   -3.3685 H   0  0  0  0  0  0  0  0  0  0  0  0
    0.9402    0.8075   -3.1700 H   0  0  0  0  0  0  0  0  0  0  0  0
   -8.0805    0.9140   -0.5894 H   0  0  0  0  0  0  0  0  0  0  0  0
   -8.5877    1.4574    1.0260 H   0  0  0  0  0  0  0  0  0  0  0  0
   -7.5235    2.4907    0.0388 H   0  0  0  0  0  0  0  0  0  0  0  0
    5.9930    0.0526    0.9265 H   0  0  0  0  0  0  0  0  0  0  0  0
    5.6581   -1.1796   -0.2908 H   0  0  0  0  0  0  0  0  0  0  0  0
    4.0969    1.1812    1.9217 H   0  0  0  0  0  0  0  0  0  0  0  0
    2.7032    1.4897    0.9288 H   0  0  0  0  0  0  0  0  0  0  0  0
    4.5187   -1.1776    2.5458 H   0  0  0  0  0  0  0  0  0  0  0  0
    5.8333   -2.2130    1.9362 H   0  0  0  0  0  0  0  0  0  0  0  0
    4.1644    2.5968   -0.8045 H   0  0  0  0  0  0  0  0  0  0  0  0
    5.5662    2.3287    0.2465 H   0  0  0  0  0  0  0  0  0  0  0  0
    4.5050   -4.1544    2.4279 H   0  0  0  0  0  0  0  0  0  0  0  0
    3.1812   -3.0985    3.0237 H   0  0  0  0  0  0  0  0  0  0  0  0
    2.8826   -4.2566    1.7105 H   0  0  0  0  0  0  0  0  0  0  0  0
    5.8862    4.6928    0.4226 H   0  0  0  0  0  0  0  0  0  0  0  0
    4.4581    4.9609   -0.6310 H   0  0  0  0  0  0  0  0  0  0  0  0
    4.5234    5.6799    0.9921 H   0  0  0  0  0  0  0  0  0  0  0  0
  1 11  1  0  0  0  0
  1 52  1  0  0  0  0
  2 22  2  0  0  0  0
  3 23  2  0  0  0  0
  4 27  1  0  0  0  0
  4 29  1  0  0  0  0
  5 28  1  0  0  0  0
  5 30  1  0  0  0  0
  6 15  1  0  0  0  0
  6 23  1  0  0  0  0
  6 51  1  0  0  0  0
  7 22  1  0  0  0  0
  7 25  1  0  0  0  0
  7 26  1  0  0  0  0
  8  9  1  0  0  0  0
  8 12  1  0  0  0  0
  8 14  1  0  0  0  0
  8 18  1  0  0  0  0
  9 10  1  0  0  0  0
  9 11  1  0  0  0  0
  9 31  1  0  0  0  0
 10 15  1  0  0  0  0
 10 20  1  0  0  0  0
 10 32  1  0  0  0  0
 11 13  1  0  0  0  0
 11 33  1  0  0  0  0
 12 16  1  0  0  0  0
 12 34  1  0  0  0  0
 12 35  1  0  0  0  0
 13 16  1  0  0  0  0
 13 19  1  0  0  0  0
 13 36  1  0  0  0  0
 14 17  1  0  0  0  0
 14 37  1  0  0  0  0
 14 38  1  0  0  0  0
 15 17  1  0  0  0  0
 15 39  1  0  0  0  0
 16 40  1  0  0  0  0
 16 41  1  0  0  0  0
 17 42  1  0  0  0  0
 17 43  1  0  0  0  0
 18 44  1  0  0  0  0
 18 45  1  0  0  0  0
 18 46  1  0  0  0  0
 19 21  1  0  0  0  0
 19 22  1  0  0  0  0
 19 47  1  0  0  0  0
 20 48  1  0  0  0  0
 20 49  1  0  0  0  0
 20 50  1  0  0  0  0
 21 53  1  0  0  0  0
 21 54  1  0  0  0  0
 21 55  1  0  0  0  0
 23 24  1  0  0  0  0
 24 56  1  0  0  0  0
 24 57  1  0  0  0  0
 24 58  1  0  0  0  0
 25 27  1  0  0  0  0
 25 59  1  0  0  0  0
 25 60  1  0  0  0  0
 26 28  1  0  0  0  0
 26 61  1  0  0  0  0
 26 62  1  0  0  0  0
 27 63  1  0  0  0  0
 27 64  1  0  0  0  0
 28 65  1  0  0  0  0
 28 66  1  0  0  0  0
 29 67  1  0  0  0  0
 29 68  1  0  0  0  0
 29 69  1  0  0  0  0
 30 70  1  0  0  0  0
 30 71  1  0  0  0  0
 30 72  1  0  0  0  0
M  END
> <PUBCHEM_COMPOUND_CID>
28962421

> <PUBCHEM_CONFORMER_RMSD>
1.2

> <PUBCHEM_CONFORMER_DIVERSEORDER>
1
23
11
16
12
20
18
13
19
3
25
2
15
17
8
7
9
10
4
5
22
14
6
21
24

> <PUBCHEM_MMFF94_PARTIAL_CHARGES>
21
1 -0.68
11 0.28
15 0.3
19 0.06
2 -0.57
22 0.57
23 0.57
24 0.06
25 0.3
26 0.3
27 0.28
28 0.28
29 0.28
3 -0.57
30 0.28
4 -0.56
5 -0.56
51 0.37
52 0.4
6 -0.73
7 -0.66

> <PUBCHEM_EFFECTIVE_ROTOR_COUNT>
12.6

> <PUBCHEM_PHARMACOPHORE_FEATURES>
10
1 1 acceptor
1 1 donor
1 2 acceptor
1 21 hydrophobe
1 3 acceptor
1 4 acceptor
1 5 acceptor
1 6 donor
6 8 9 10 14 15 17 rings
6 8 9 11 12 13 16 rings

> <PUBCHEM_HEAVY_ATOM_COUNT>
30

> <PUBCHEM_ATOM_DEF_STEREO_COUNT>
7

> <PUBCHEM_ATOM_UDEF_STEREO_COUNT>
0

> <PUBCHEM_BOND_DEF_STEREO_COUNT>
0

> <PUBCHEM_BOND_UDEF_STEREO_COUNT>
0

> <PUBCHEM_ISOTOPIC_ATOM_COUNT>
0

> <PUBCHEM_COMPONENT_COUNT>
1

> <PUBCHEM_CACTVS_TAUTO_COUNT>
2

> <PUBCHEM_CONFORMER_ID>
01B9EE7500000001

> <PUBCHEM_MMFF94_ENERGY>
87.3057

> <PUBCHEM_FEATURE_SELFOVERLAP>
50.763

> <PUBCHEM_SHAPE_FINGERPRINT>
10 15 18335427876516679377
12422481 6 18189893111217767039
12633257 1 18272925021196361058
12788726 201 17632306687112232328
12892183 10 18189331432590502582
13140716 1 18410855490229921342
13533116 47 18114463366287987082
13583140 156 18189875583782955334
13782708 43 14057004953554959833
14849402 71 18261948666059060440
15475509 35 17240756234427696738
1813 80 16226333595259398406
21315764 268 18408879616459289269
21421861 104 18335130991239586786
21756936 100 17554037033620778228
21792934 111 18042126458744405609
21859007 373 17968647225894248093
23559900 14 18201729431474396718
268830 7 18340756143828949118
2838139 119 18339918234986671365
3411729 13 18270963569968210980
3472631 163 18131635603604882205
3680242 22 18408611344496467385
392239 28 18343303639488319921
5104073 3 18337398239908159203
59682541 52 8790885155787786297
86090 222 16806172042766843658

> <PUBCHEM_SHAPE_MULTIPOLES>
578.08
15.53
4
1.76
17.6
2.84
0.43
7.26
-8.28
-7.09
-1.79
-1
-0.84
-1.24

> <PUBCHEM_SHAPE_SELFOVERLAP>
1156.486

> <PUBCHEM_SHAPE_VOLUME>
338.3

> <PUBCHEM_COORDINATE_TYPE>
2
5
10

$$$$
