45783503
  -OEChem-12032416343D

 61 65  0     1  0  0  0  0  0999 V2000
   -1.3597    2.6228   -1.7304 O   0  0  0  0  0  0  0  0  0  0  0  0
   -4.0310   -4.8362    0.5745 O   0  0  0  0  0  0  0  0  0  0  0  0
    7.9487   -1.4038    0.5540 O   0  0  0  0  0  0  0  0  0  0  0  0
   -3.6574    1.2965    0.8127 N   0  0  1  0  0  0  0  0  0  0  0  0
   -4.0238   -2.7322   -0.4108 N   0  0  0  0  0  0  0  0  0  0  0  0
   -0.7612    1.5211    0.1256 N   0  0  0  0  0  0  0  0  0  0  0  0
   -0.0041    2.3062   -1.8855 N   0  0  0  0  0  0  0  0  0  0  0  0
    5.3633   -0.3344    0.2866 N   0  0  0  0  0  0  0  0  0  0  0  0
    3.8747    0.8132   -1.1515 N   0  0  0  0  0  0  0  0  0  0  0  0
   -4.1617    0.1092    0.1268 C   0  0  0  0  0  0  0  0  0  0  0  0
   -3.1687    2.3391   -0.1117 C   0  0  1  0  0  0  0  0  0  0  0  0
   -4.6819    1.9286    1.6442 C   0  0  0  0  0  0  0  0  0  0  0  0
   -3.3820    3.6634    0.6445 C   0  0  0  0  0  0  0  0  0  0  0  0
   -3.0672   -0.4868   -0.7680 C   0  0  0  0  0  0  0  0  0  0  0  0
   -4.6399   -0.9274    1.1516 C   0  0  0  0  0  0  0  0  0  0  0  0
   -4.0498    3.2703    1.9545 C   0  0  0  0  0  0  0  0  0  0  0  0
   -3.5407   -1.7844   -1.4227 C   0  0  0  0  0  0  0  0  0  0  0  0
   -5.0825   -2.2150    0.4587 C   0  0  0  0  0  0  0  0  0  0  0  0
   -1.7264    2.1250   -0.5204 C   0  0  0  0  0  0  0  0  0  0  0  0
   -3.5835   -4.0469   -0.2614 C   0  0  0  0  0  0  0  0  0  0  0  0
    0.2755    1.6577   -0.7510 C   0  0  0  0  0  0  0  0  0  0  0  0
   -2.4888   -4.5028   -1.1929 C   0  0  0  0  0  0  0  0  0  0  0  0
    1.5800    1.1355   -0.4622 C   0  0  0  0  0  0  0  0  0  0  0  0
    1.8364    0.4668    0.7298 C   0  0  0  0  0  0  0  0  0  0  0  0
    5.5509   -1.7721    0.5103 C   0  0  0  0  0  0  0  0  0  0  0  0
    6.5198    0.3651   -0.2899 C   0  0  0  0  0  0  0  0  0  0  0  0
    4.0862    0.1687    0.0180 C   0  0  0  0  0  0  0  0  0  0  0  0
    2.6237    1.2810   -1.3616 C   0  0  0  0  0  0  0  0  0  0  0  0
    6.8618   -2.0113    1.2514 C   0  0  0  0  0  0  0  0  0  0  0  0
    7.7784    0.0121    0.4946 C   0  0  0  0  0  0  0  0  0  0  0  0
    3.1109   -0.0288    0.9821 C   0  0  0  0  0  0  0  0  0  0  0  0
   -5.0155    0.3796   -0.5116 H   0  0  0  0  0  0  0  0  0  0  0  0
   -3.7891    2.3745   -1.0187 H   0  0  0  0  0  0  0  0  0  0  0  0
   -5.6255    2.0705    1.1024 H   0  0  0  0  0  0  0  0  0  0  0  0
   -4.8764    1.3856    2.5739 H   0  0  0  0  0  0  0  0  0  0  0  0
   -2.4573    4.2203    0.8310 H   0  0  0  0  0  0  0  0  0  0  0  0
   -4.0549    4.3117    0.0700 H   0  0  0  0  0  0  0  0  0  0  0  0
   -2.8023    0.1778   -1.5942 H   0  0  0  0  0  0  0  0  0  0  0  0
   -2.1673   -0.7071   -0.1804 H   0  0  0  0  0  0  0  0  0  0  0  0
   -3.8309   -1.1592    1.8572 H   0  0  0  0  0  0  0  0  0  0  0  0
   -5.4898   -0.5585    1.7359 H   0  0  0  0  0  0  0  0  0  0  0  0
   -4.7820    4.0132    2.2844 H   0  0  0  0  0  0  0  0  0  0  0  0
   -3.2926    3.1648    2.7414 H   0  0  0  0  0  0  0  0  0  0  0  0
   -2.7312   -2.2037   -2.0229 H   0  0  0  0  0  0  0  0  0  0  0  0
   -4.3775   -1.5858   -2.1033 H   0  0  0  0  0  0  0  0  0  0  0  0
   -5.9616   -2.0307   -0.1701 H   0  0  0  0  0  0  0  0  0  0  0  0
   -5.3679   -2.9583    1.2098 H   0  0  0  0  0  0  0  0  0  0  0  0
   -2.2294   -5.5420   -0.9684 H   0  0  0  0  0  0  0  0  0  0  0  0
   -2.8299   -4.4533   -2.2303 H   0  0  0  0  0  0  0  0  0  0  0  0
   -1.5938   -3.8908   -1.0526 H   0  0  0  0  0  0  0  0  0  0  0  0
    4.7322   -2.2120    1.0896 H   0  0  0  0  0  0  0  0  0  0  0  0
    5.5787   -2.2746   -0.4644 H   0  0  0  0  0  0  0  0  0  0  0  0
    6.6357    0.0577   -1.3365 H   0  0  0  0  0  0  0  0  0  0  0  0
    6.3788    1.4521   -0.2620 H   0  0  0  0  0  0  0  0  0  0  0  0
    1.0639    0.3202    1.4803 H   0  0  0  0  0  0  0  0  0  0  0  0
    2.5068    1.7896   -2.3140 H   0  0  0  0  0  0  0  0  0  0  0  0
    7.0627   -3.0854    1.3167 H   0  0  0  0  0  0  0  0  0  0  0  0
    6.8197   -1.6185    2.2746 H   0  0  0  0  0  0  0  0  0  0  0  0
    7.7414    0.4176    1.5130 H   0  0  0  0  0  0  0  0  0  0  0  0
    8.6579    0.4368    0.0004 H   0  0  0  0  0  0  0  0  0  0  0  0
    3.3136   -0.5373    1.9190 H   0  0  0  0  0  0  0  0  0  0  0  0
  1  7  1  0  0  0  0
  1 19  1  0  0  0  0
  2 20  2  0  0  0  0
  3 29  1  0  0  0  0
  3 30  1  0  0  0  0
  4 10  1  0  0  0  0
  4 11  1  0  0  0  0
  4 12  1  0  0  0  0
  5 17  1  0  0  0  0
  5 18  1  0  0  0  0
  5 20  1  0  0  0  0
  6 19  2  0  0  0  0
  6 21  1  0  0  0  0
  7 21  2  0  0  0  0
  8 25  1  0  0  0  0
  8 26  1  0  0  0  0
  8 27  1  0  0  0  0
  9 27  2  0  0  0  0
  9 28  1  0  0  0  0
 10 14  1  0  0  0  0
 10 15  1  0  0  0  0
 10 32  1  0  0  0  0
 11 13  1  0  0  0  0
 11 19  1  0  0  0  0
 11 33  1  0  0  0  0
 12 16  1  0  0  0  0
 12 34  1  0  0  0  0
 12 35  1  0  0  0  0
 13 16  1  0  0  0  0
 13 36  1  0  0  0  0
 13 37  1  0  0  0  0
 14 17  1  0  0  0  0
 14 38  1  0  0  0  0
 14 39  1  0  0  0  0
 15 18  1  0  0  0  0
 15 40  1  0  0  0  0
 15 41  1  0  0  0  0
 16 42  1  0  0  0  0
 16 43  1  0  0  0  0
 17 44  1  0  0  0  0
 17 45  1  0  0  0  0
 18 46  1  0  0  0  0
 18 47  1  0  0  0  0
 20 22  1  0  0  0  0
 21 23  1  0  0  0  0
 22 48  1  0  0  0  0
 22 49  1  0  0  0  0
 22 50  1  0  0  0  0
 23 24  1  0  0  0  0
 23 28  2  0  0  0  0
 24 31  2  0  0  0  0
 24 55  1  0  0  0  0
 25 29  1  0  0  0  0
 25 51  1  0  0  0  0
 25 52  1  0  0  0  0
 26 30  1  0  0  0  0
 26 53  1  0  0  0  0
 26 54  1  0  0  0  0
 27 31  1  0  0  0  0
 28 56  1  0  0  0  0
 29 57  1  0  0  0  0
 29 58  1  0  0  0  0
 30 59  1  0  0  0  0
 30 60  1  0  0  0  0
 31 61  1  0  0  0  0
M  END
> <PUBCHEM_COMPOUND_CID>
45783503

> <PUBCHEM_CONFORMER_RMSD>
1

> <PUBCHEM_CONFORMER_DIVERSEORDER>
1
38
67
125
58
117
80
93
90
32
134
131
119
5
12
51
99
95
71
91
27
133
11
85
65
26
113
128
103
92
132
31
64
23
30
78
98
8
120
37
13
53
72
16
48
106
100
25
89
84
124
110
122
33
54
81
82
83
17
55
123
112
79
52
86
66
96
62
28
104
47
130
114
118
105
75
76
87
116
20
59
6
111
97
115
18
45
4
108
127
43
77
50
44
88
109
41
14
35
49
129
73
94
7
61
74
56
36
102
70
2
63
34
19
69
40
46
68
42
24
15
22
39
121
101
57
29
10
3
9
126
21
60
107

> <PUBCHEM_MMFF94_PARTIAL_CHARGES>
30
1 -0.02
10 0.27
11 0.45
12 0.27
17 0.3
18 0.3
19 0.3
2 -0.57
20 0.57
21 0.46
22 0.06
23 0.05
24 -0.15
25 0.37
26 0.37
27 0.41
28 0.16
29 0.28
3 -0.56
30 0.28
31 -0.15
4 -0.81
5 -0.66
55 0.15
56 0.15
6 -0.57
61 0.15
7 -0.41
8 -0.84
9 -0.62

> <PUBCHEM_EFFECTIVE_ROTOR_COUNT>
8.4

> <PUBCHEM_PHARMACOPHORE_FEATURES>
10
1 2 acceptor
1 3 acceptor
1 4 cation
3 6 7 21 cation
3 8 9 27 cation
5 1 6 7 19 21 rings
5 4 11 12 13 16 rings
6 3 8 25 26 29 30 rings
6 5 10 14 15 17 18 rings
6 9 23 24 27 28 31 rings

> <PUBCHEM_HEAVY_ATOM_COUNT>
31

> <PUBCHEM_ATOM_DEF_STEREO_COUNT>
1

> <PUBCHEM_ATOM_UDEF_STEREO_COUNT>
0

> <PUBCHEM_BOND_DEF_STEREO_COUNT>
0

> <PUBCHEM_BOND_UDEF_STEREO_COUNT>
0

> <PUBCHEM_ISOTOPIC_ATOM_COUNT>
0

> <PUBCHEM_COMPONENT_COUNT>
1

> <PUBCHEM_CACTVS_TAUTO_COUNT>
1

> <PUBCHEM_CONFORMER_ID>
02BA99CF00000001

> <PUBCHEM_MMFF94_ENERGY>
73.0095

> <PUBCHEM_FEATURE_SELFOVERLAP>
50.749

> <PUBCHEM_SHAPE_FINGERPRINT>
10305334 12 18408605838512534607
10319688 45 18408318878234787876
10391435 84 18263627598195635880
10622 236 18190459557332680615
10939801 23 18196654215045032254
11227150 75 16481598675891263279
117089 54 17972324189723930443
11963148 33 18042959888548405930
12174731 88 18334571339177951099
12422481 6 18271810056260950030
12522641 33 17975400336460691405
12522641 68 17173467097386392564
12988421 55 17840879473494570841
13009979 54 18266182919005903765
1361 4 18409164399415561378
13782708 43 18260540088367879984
14150023 24 18052822447371575409
14705955 166 17059792035397240745
14844126 61 18412268346214450609
14856354 85 18272932696208610492
14950920 106 18273213114354392936
15021287 119 17603875476997380332
15183329 4 17530965761832885834
15250474 111 18335707160769847390
15289351 153 9798820685951280706
15320294 125 18334583425785134119
15326921 28 17907294355977568273
15348495 7 18131625669694186480
15439362 3 17617095803479623949
15467298 65 18188199928226983154
15728490 83 18116720801484555891
15803439 3 17318973232580268869
16110190 28 18338237038119987554
17324776 126 17627489859757819454
17780758 139 18342457023945661697
17913733 40 15985106293301640390
18927931 339 16806176453455688152
19246450 95 18339942428827444881
208703 8 18114462383115276203
21033648 29 16486705679499631885
229767 44 18411986836604142703
23516275 137 17977406940168828530
23522609 53 18045251326293551636
2838139 119 9799689320814650286
3504750 166 18264200327889979364
397830 11 18201144538934064720
4017518 198 18267861680125302319
4073 2 18202003184263159622
4435113 14 18130797703110927142
484985 159 18335692841681224655
5080951 261 18263065674264852636
5104073 3 18272647957325780336
5364581 5 17916857032379927080
6058803 2 18118987985844728141
636775 72 9727337040855857078
6431902 208 18186238441962373098
6609424 69 11205666140762608975
6691757 9 18272656697768817977
68570916 9 18409449203007490840
7970288 3 18191022502817372867
9896288 288 18341061705599402057
9953998 17 18343017766296553112

> <PUBCHEM_SHAPE_MULTIPOLES>
590.47
18.11
5.24
1.5
39.17
5.24
0.11
8.79
-6.71
-11.18
0.07
-0.73
-0.66
-2.89

> <PUBCHEM_SHAPE_SELFOVERLAP>
1262.604

> <PUBCHEM_SHAPE_VOLUME>
326.2

> <PUBCHEM_COORDINATE_TYPE>
2
5
10

$$$$
