26744419
  -OEChem-12032416193D

 40 43  0     1  0  0  0  0  0999 V2000
    6.3493    0.7229    1.0923 F   0  0  0  0  0  0  0  0  0  0  0  0
   -4.5253    3.3688    0.5855 O   0  0  0  0  0  0  0  0  0  0  0  0
   -0.5425   -0.0967   -2.0697 O   0  0  0  0  0  0  0  0  0  0  0  0
   -2.9353    0.1697    0.4905 N   0  0  1  0  0  0  0  0  0  0  0  0
    0.0797    0.8147   -0.1206 N   0  0  0  0  0  0  0  0  0  0  0  0
   -1.3256   -2.2081    1.4493 N   0  0  0  0  0  0  0  0  0  0  0  0
   -1.7629   -2.9809   -0.5862 N   0  0  0  0  0  0  0  0  0  0  0  0
    0.8510   -0.2229   -2.0080 N   0  0  0  0  0  0  0  0  0  0  0  0
   -2.3970    0.7809   -0.7416 C   0  0  1  0  0  0  0  0  0  0  0  0
   -2.7315    2.2790   -0.6167 C   0  0  0  0  0  0  0  0  0  0  0  0
   -3.4967    2.4042    0.6949 C   0  0  2  0  0  0  0  0  0  0  0  0
   -4.0529    1.0104    0.9155 C   0  0  0  0  0  0  0  0  0  0  0  0
   -3.3311   -1.2217    0.3160 C   0  0  0  0  0  0  0  0  0  0  0  0
   -0.9154    0.5246   -0.9203 C   0  0  0  0  0  0  0  0  0  0  0  0
   -2.1471   -2.1508    0.3579 C   0  0  0  0  0  0  0  0  0  0  0  0
    1.1428    0.3370   -0.8303 C   0  0  0  0  0  0  0  0  0  0  0  0
   -0.3559   -3.1336    1.1841 C   0  0  0  0  0  0  0  0  0  0  0  0
    2.4852    0.4365   -0.3346 C   0  0  0  0  0  0  0  0  0  0  0  0
   -0.6468   -3.5966   -0.0775 C   0  0  0  0  0  0  0  0  0  0  0  0
    2.7296    1.0334    0.9023 C   0  0  0  0  0  0  0  0  0  0  0  0
    3.5462   -0.0639   -1.0893 C   0  0  0  0  0  0  0  0  0  0  0  0
    4.0348    1.1302    1.3843 C   0  0  0  0  0  0  0  0  0  0  0  0
    4.8515    0.0329   -0.6074 C   0  0  0  0  0  0  0  0  0  0  0  0
    5.0958    0.6299    0.6295 C   0  0  0  0  0  0  0  0  0  0  0  0
   -2.9288    0.4029   -1.6262 H   0  0  0  0  0  0  0  0  0  0  0  0
   -1.8464    2.9254   -0.6033 H   0  0  0  0  0  0  0  0  0  0  0  0
   -3.3525    2.6002   -1.4623 H   0  0  0  0  0  0  0  0  0  0  0  0
   -2.8222    2.6881    1.5120 H   0  0  0  0  0  0  0  0  0  0  0  0
   -4.3171    0.8499    1.9661 H   0  0  0  0  0  0  0  0  0  0  0  0
   -4.9548    0.8491    0.3102 H   0  0  0  0  0  0  0  0  0  0  0  0
   -3.9026   -1.3774   -0.6074 H   0  0  0  0  0  0  0  0  0  0  0  0
   -3.9903   -1.5264    1.1405 H   0  0  0  0  0  0  0  0  0  0  0  0
   -4.1063    4.2194    0.3701 H   0  0  0  0  0  0  0  0  0  0  0  0
   -1.4160   -1.6639    2.2970 H   0  0  0  0  0  0  0  0  0  0  0  0
    0.4253   -3.3675    1.8927 H   0  0  0  0  0  0  0  0  0  0  0  0
   -0.1086   -4.3410   -0.6459 H   0  0  0  0  0  0  0  0  0  0  0  0
    1.9242    1.4323    1.5140 H   0  0  0  0  0  0  0  0  0  0  0  0
    3.3946   -0.5356   -2.0569 H   0  0  0  0  0  0  0  0  0  0  0  0
    4.2258    1.5947    2.3471 H   0  0  0  0  0  0  0  0  0  0  0  0
    5.6782   -0.3563   -1.1943 H   0  0  0  0  0  0  0  0  0  0  0  0
  1 24  1  0  0  0  0
  2 11  1  0  0  0  0
  2 33  1  0  0  0  0
  3  8  1  0  0  0  0
  3 14  1  0  0  0  0
  4  9  1  0  0  0  0
  4 12  1  0  0  0  0
  4 13  1  0  0  0  0
  5 14  2  0  0  0  0
  5 16  1  0  0  0  0
  6 15  1  0  0  0  0
  6 17  1  0  0  0  0
  6 34  1  0  0  0  0
  7 15  2  0  0  0  0
  7 19  1  0  0  0  0
  8 16  2  0  0  0  0
  9 10  1  0  0  0  0
  9 14  1  0  0  0  0
  9 25  1  0  0  0  0
 10 11  1  0  0  0  0
 10 26  1  0  0  0  0
 10 27  1  0  0  0  0
 11 12  1  0  0  0  0
 11 28  1  0  0  0  0
 12 29  1  0  0  0  0
 12 30  1  0  0  0  0
 13 15  1  0  0  0  0
 13 31  1  0  0  0  0
 13 32  1  0  0  0  0
 16 18  1  0  0  0  0
 17 19  2  0  0  0  0
 17 35  1  0  0  0  0
 18 20  2  0  0  0  0
 18 21  1  0  0  0  0
 19 36  1  0  0  0  0
 20 22  1  0  0  0  0
 20 37  1  0  0  0  0
 21 23  2  0  0  0  0
 21 38  1  0  0  0  0
 22 24  2  0  0  0  0
 22 39  1  0  0  0  0
 23 24  1  0  0  0  0
 23 40  1  0  0  0  0
M  END
> <PUBCHEM_COMPOUND_CID>
26744419

> <PUBCHEM_CONFORMER_RMSD>
0.8

> <PUBCHEM_CONFORMER_DIVERSEORDER>
1
8
4
23
17
16
33
26
12
22
18
21
30
19
34
10
31
25
2
28
7
29
32
24
14
15
6
3
9
27
11
5
13
20

> <PUBCHEM_MMFF94_PARTIAL_CHARGES>
31
1 -0.19
11 0.28
12 0.27
13 0.45
14 0.3
15 0.01
16 0.46
17 -0.3
18 0.05
19 0.08
2 -0.68
20 -0.15
21 -0.15
22 -0.15
23 -0.15
24 0.19
3 -0.02
33 0.4
34 0.27
35 0.15
36 0.15
37 0.15
38 0.15
39 0.15
4 -0.81
40 0.15
5 -0.57
6 0.03
7 -0.57
8 -0.41
9 0.45

> <PUBCHEM_EFFECTIVE_ROTOR_COUNT>
5

> <PUBCHEM_PHARMACOPHORE_FEATURES>
10
1 2 acceptor
1 2 donor
1 4 cation
1 6 donor
3 5 8 16 cation
3 6 7 15 cation
5 3 5 8 14 16 rings
5 4 9 10 11 12 rings
5 6 7 15 17 19 rings
6 18 20 21 22 23 24 rings

> <PUBCHEM_HEAVY_ATOM_COUNT>
24

> <PUBCHEM_ATOM_DEF_STEREO_COUNT>
2

> <PUBCHEM_ATOM_UDEF_STEREO_COUNT>
0

> <PUBCHEM_BOND_DEF_STEREO_COUNT>
0

> <PUBCHEM_BOND_UDEF_STEREO_COUNT>
0

> <PUBCHEM_ISOTOPIC_ATOM_COUNT>
0

> <PUBCHEM_COMPONENT_COUNT>
1

> <PUBCHEM_CACTVS_TAUTO_COUNT>
1

> <PUBCHEM_CONFORMER_ID>
0198166300000001

> <PUBCHEM_MMFF94_ENERGY>
37.4739

> <PUBCHEM_FEATURE_SELFOVERLAP>
50.749

> <PUBCHEM_SHAPE_FINGERPRINT>
10366900 7 18128250280317410132
11370993 144 18412261731890961226
11370993 70 18411138008883827827
11552529 35 18193266627851086650
11646440 116 18194125342491327555
12293681 4 18272933830227585624
12500047 106 18411420605073628468
12633257 1 18198921381428854473
12788726 201 18046361982727535023
13004483 165 17908704278118807047
13135754 10 17750540500814518147
13140716 1 17903082470839197243
13583140 156 17703227437998624482
14081887 123 18267295615972308010
14178342 30 18261969453141207501
20554085 129 18196913518936850641
20600515 1 18337686255667043685
20832881 197 17766855926647792942
21033648 29 18341613672567800624
212916 134 18410855417395150105
23402539 116 18270959176269174719
23559900 14 18268446663334655982
23728640 28 18261397809710164963
4340502 62 18267595619838937985
5265222 85 18192740967130972582
5364581 5 17981312702245451016
5385378 56 18049168774390104641
58807428 26 18188496765799401059
5924683 9 18198899391117547630
59755656 520 18340762655215654229
602551 16 18334858363884722258
7064713 232 18260269633538622702
81228 2 18117273872743306559
9862522 239 17822562807701412965

> <PUBCHEM_SHAPE_MULTIPOLES>
449.99
9.91
3.52
1.47
12.22
2.6
0.3
-6.59
-3.41
-5.09
-0.96
0.56
0.03
0.32

> <PUBCHEM_SHAPE_SELFOVERLAP>
985.874

> <PUBCHEM_SHAPE_VOLUME>
247.4

> <PUBCHEM_COORDINATE_TYPE>
2
5
10

$$$$
