45783555
  -OEChem-12032416273D

 51 53  0     1  0  0  0  0  0999 V2000
   -2.2875   -0.0734   -2.0442 O   0  0  0  0  0  0  0  0  0  0  0  0
    4.8254   -0.1145    0.5878 O   0  0  0  0  0  0  0  0  0  0  0  0
    7.5086    0.6565    0.3871 O   0  0  0  0  0  0  0  0  0  0  0  0
   -4.4867    0.3369    0.6659 N   0  0  1  0  0  0  0  0  0  0  0  0
   -1.4640    0.7018   -0.1109 N   0  0  0  0  0  0  0  0  0  0  0  0
   -0.9126   -0.3386   -2.0723 N   0  0  0  0  0  0  0  0  0  0  0  0
    3.1542   -0.5519   -0.9615 N   0  0  0  0  0  0  0  0  0  0  0  0
   -3.9637    0.9349   -0.5787 C   0  0  1  0  0  0  0  0  0  0  0  0
   -4.1361    2.4529   -0.3858 C   0  0  0  0  0  0  0  0  0  0  0  0
   -5.4919    1.2668    1.1808 C   0  0  0  0  0  0  0  0  0  0  0  0
   -4.8181    2.6070    0.9662 C   0  0  0  0  0  0  0  0  0  0  0  0
   -5.0258   -1.0037    0.4767 C   0  0  0  0  0  0  0  0  0  0  0  0
   -3.9310   -2.0844    0.4887 C   0  0  0  0  0  0  0  0  0  0  0  0
   -2.5282    0.5401   -0.8559 C   0  0  0  0  0  0  0  0  0  0  0  0
   -3.1958   -2.0601    1.8314 C   0  0  0  0  0  0  0  0  0  0  0  0
   -4.4876   -3.4872    0.2322 C   0  0  0  0  0  0  0  0  0  0  0  0
   -0.4976    0.1473   -0.8986 C   0  0  0  0  0  0  0  0  0  0  0  0
    0.8745    0.0960   -0.4839 C   0  0  0  0  0  0  0  0  0  0  0  0
    1.2711    0.6132    0.7445 C   0  0  0  0  0  0  0  0  0  0  0  0
    1.8460   -0.4710   -1.2929 C   0  0  0  0  0  0  0  0  0  0  0  0
    2.6081    0.5485    1.1207 C   0  0  0  0  0  0  0  0  0  0  0  0
    3.5021   -0.0387    0.2399 C   0  0  0  0  0  0  0  0  0  0  0  0
    5.7001   -0.7268   -0.3525 C   0  0  0  0  0  0  0  0  0  0  0  0
    7.1142   -0.6966    0.1945 C   0  0  0  0  0  0  0  0  0  0  0  0
    8.8221    0.7449    0.9210 C   0  0  0  0  0  0  0  0  0  0  0  0
   -4.5807    0.6441   -1.4405 H   0  0  0  0  0  0  0  0  0  0  0  0
   -3.1967    3.0154   -0.4144 H   0  0  0  0  0  0  0  0  0  0  0  0
   -4.7890    2.8518   -1.1719 H   0  0  0  0  0  0  0  0  0  0  0  0
   -6.4263    1.2147    0.6076 H   0  0  0  0  0  0  0  0  0  0  0  0
   -5.7119    1.0926    2.2386 H   0  0  0  0  0  0  0  0  0  0  0  0
   -5.5269    3.4402    0.9795 H   0  0  0  0  0  0  0  0  0  0  0  0
   -4.0659    2.7862    1.7445 H   0  0  0  0  0  0  0  0  0  0  0  0
   -5.6213   -1.0723   -0.4430 H   0  0  0  0  0  0  0  0  0  0  0  0
   -5.7198   -1.2359    1.2969 H   0  0  0  0  0  0  0  0  0  0  0  0
   -3.2051   -1.8996   -0.3072 H   0  0  0  0  0  0  0  0  0  0  0  0
   -3.8839   -2.2326    2.6663 H   0  0  0  0  0  0  0  0  0  0  0  0
   -2.4295   -2.8425    1.8641 H   0  0  0  0  0  0  0  0  0  0  0  0
   -2.6868   -1.1062    2.0010 H   0  0  0  0  0  0  0  0  0  0  0  0
   -5.2111   -3.7734    1.0031 H   0  0  0  0  0  0  0  0  0  0  0  0
   -3.6847   -4.2320    0.2255 H   0  0  0  0  0  0  0  0  0  0  0  0
   -4.9928   -3.5290   -0.7384 H   0  0  0  0  0  0  0  0  0  0  0  0
    0.5610    1.0714    1.4280 H   0  0  0  0  0  0  0  0  0  0  0  0
    1.6194   -0.8971   -2.2658 H   0  0  0  0  0  0  0  0  0  0  0  0
    2.9339    0.9472    2.0752 H   0  0  0  0  0  0  0  0  0  0  0  0
    5.6704   -0.1666   -1.2955 H   0  0  0  0  0  0  0  0  0  0  0  0
    5.4020   -1.7674   -0.5266 H   0  0  0  0  0  0  0  0  0  0  0  0
    7.1491   -1.2171    1.1587 H   0  0  0  0  0  0  0  0  0  0  0  0
    7.7978   -1.1864   -0.5076 H   0  0  0  0  0  0  0  0  0  0  0  0
    8.8722    0.2587    1.9001 H   0  0  0  0  0  0  0  0  0  0  0  0
    9.5459    0.2912    0.2371 H   0  0  0  0  0  0  0  0  0  0  0  0
    9.0734    1.8018    1.0437 H   0  0  0  0  0  0  0  0  0  0  0  0
  1  6  1  0  0  0  0
  1 14  1  0  0  0  0
  2 22  1  0  0  0  0
  2 23  1  0  0  0  0
  3 24  1  0  0  0  0
  3 25  1  0  0  0  0
  4  8  1  0  0  0  0
  4 10  1  0  0  0  0
  4 12  1  0  0  0  0
  5 14  2  0  0  0  0
  5 17  1  0  0  0  0
  6 17  2  0  0  0  0
  7 20  1  0  0  0  0
  7 22  2  0  0  0  0
  8  9  1  0  0  0  0
  8 14  1  0  0  0  0
  8 26  1  0  0  0  0
  9 11  1  0  0  0  0
  9 27  1  0  0  0  0
  9 28  1  0  0  0  0
 10 11  1  0  0  0  0
 10 29  1  0  0  0  0
 10 30  1  0  0  0  0
 11 31  1  0  0  0  0
 11 32  1  0  0  0  0
 12 13  1  0  0  0  0
 12 33  1  0  0  0  0
 12 34  1  0  0  0  0
 13 15  1  0  0  0  0
 13 16  1  0  0  0  0
 13 35  1  0  0  0  0
 15 36  1  0  0  0  0
 15 37  1  0  0  0  0
 15 38  1  0  0  0  0
 16 39  1  0  0  0  0
 16 40  1  0  0  0  0
 16 41  1  0  0  0  0
 17 18  1  0  0  0  0
 18 19  1  0  0  0  0
 18 20  2  0  0  0  0
 19 21  2  0  0  0  0
 19 42  1  0  0  0  0
 20 43  1  0  0  0  0
 21 22  1  0  0  0  0
 21 44  1  0  0  0  0
 23 24  1  0  0  0  0
 23 45  1  0  0  0  0
 23 46  1  0  0  0  0
 24 47  1  0  0  0  0
 24 48  1  0  0  0  0
 25 49  1  0  0  0  0
 25 50  1  0  0  0  0
 25 51  1  0  0  0  0
M  END
> <PUBCHEM_COMPOUND_CID>
45783555

> <PUBCHEM_CONFORMER_RMSD>
1

> <PUBCHEM_CONFORMER_DIVERSEORDER>
1
45
59
44
31
39
67
18
41
43
58
3
38
20
56
17
71
55
61
60
70
47
2
36
16
46
28
42
4
68
50
21
64
32
49
23
7
66
15
37
62
19
25
35
26
10
33
65
57
48
63
52
13
34
73
53
24
27
9
40
22
12
11
29
69
8
30
5
51
6
14
72
54

> <PUBCHEM_MMFF94_PARTIAL_CHARGES>
23
1 -0.02
10 0.27
12 0.27
14 0.3
17 0.46
18 0.05
19 -0.15
2 -0.36
20 0.16
21 -0.15
22 0.39
23 0.28
24 0.28
25 0.28
3 -0.56
4 -0.81
42 0.15
43 0.15
44 0.15
5 -0.57
6 -0.41
7 -0.62
8 0.45

> <PUBCHEM_EFFECTIVE_ROTOR_COUNT>
9

> <PUBCHEM_PHARMACOPHORE_FEATURES>
7
1 3 acceptor
1 4 cation
3 13 15 16 hydrophobe
3 5 6 17 cation
5 1 5 6 14 17 rings
5 4 8 9 10 11 rings
6 7 18 19 20 21 22 rings

> <PUBCHEM_HEAVY_ATOM_COUNT>
25

> <PUBCHEM_ATOM_DEF_STEREO_COUNT>
1

> <PUBCHEM_ATOM_UDEF_STEREO_COUNT>
0

> <PUBCHEM_BOND_DEF_STEREO_COUNT>
0

> <PUBCHEM_BOND_UDEF_STEREO_COUNT>
0

> <PUBCHEM_ISOTOPIC_ATOM_COUNT>
0

> <PUBCHEM_COMPONENT_COUNT>
1

> <PUBCHEM_CACTVS_TAUTO_COUNT>
1

> <PUBCHEM_CONFORMER_ID>
02BA9A0300000001

> <PUBCHEM_MMFF94_ENERGY>
48.0803

> <PUBCHEM_FEATURE_SELFOVERLAP>
35.522

> <PUBCHEM_SHAPE_FINGERPRINT>
10 15 17989486321045093482
10066227 112 17203319019080689344
10319926 262 18341601633778985106
11007060 377 17345455146018337310
11089746 13 12823287997196497266
11315181 36 18335700563758063821
11545043 162 18342457062299388443
11552529 35 18337952398190307547
12091667 2 17989200447742472532
12166972 35 7853560319430660918
12616971 3 16588318184588194070
12633257 1 18334586741668834529
13583140 156 17989489623870046123
13862211 1 13840271368923851732
13914758 101 10303824181215820302
13947920 75 17385720331026158994
14844126 61 18336272340402684971
14856354 85 18261399952745462127
15021287 119 16732709350056092140
15183329 4 16515685546560075386
15348495 7 18341894112667675008
15352257 5 18187366489843876978
15537594 2 16805604750384739779
15716309 27 17022623065920471052
17093844 174 18412259532208368353
17780758 139 18333452049752550643
17844677 252 18341618152271034888
200 152 15068339012478200757
21033648 29 17417519242520505817
21267235 1 14201694025822002956
220451 1 17894913993251446330
23402539 116 15140679163581959430
23522609 53 17677923191471697628
23559900 14 18124903182334228431
397830 11 18268986652366480344
4073 2 18341335513595635254
4169191 19 15123217884710837424
4340502 62 18260265219135675386
484985 159 18335689594792314407
4938544 92 18041274362343644821
5104073 3 18341040896108384384
5364581 5 18339361997308095544
58260988 114 15937276502875758297
5924683 9 18410857698682238575
602551 16 18261398866361543283
6328613 192 17060050467837750800
68570916 9 18187367683949533132
7226269 152 16200430256380235560
9953998 17 18260267447110365713

> <PUBCHEM_SHAPE_MULTIPOLES>
476.96
19.37
2.36
1.48
43.03
1.13
0.32
-1.67
-7.1
-6.2
-0.72
-0.73
0.09
0.75

> <PUBCHEM_SHAPE_SELFOVERLAP>
992.442

> <PUBCHEM_SHAPE_VOLUME>
274.5

> <PUBCHEM_COORDINATE_TYPE>
2
5
10

$$$$
