26742444
  -OEChem-12032416183D

 65 69  0     1  0  0  0  0  0999 V2000
    4.3594   -0.5753    0.2699 S   0  0  0  0  0  0  0  0  0  0  0  0
    4.8948   -0.7555    1.6059 O   0  0  0  0  0  0  0  0  0  0  0  0
    5.2160   -0.7447   -0.8881 O   0  0  0  0  0  0  0  0  0  0  0  0
   -5.0234   -1.5066   -0.3976 O   0  0  0  0  0  0  0  0  0  0  0  0
    2.7401   -1.0790   -2.2339 O   0  0  0  0  0  0  0  0  0  0  0  0
    1.0984   -4.0710    2.0957 O   0  0  0  0  0  0  0  0  0  0  0  0
    1.0474    3.1879    1.8433 N   0  0  2  0  0  0  0  0  0  0  0  0
    3.5856    0.9389    0.1738 N   0  0  0  0  0  0  0  0  0  0  0  0
   -1.4206    1.5285   -1.6174 N   0  0  0  0  0  0  0  0  0  0  0  0
   -3.1319   -0.1668   -1.5467 N   0  0  0  0  0  0  0  0  0  0  0  0
    0.1565    3.6744   -0.5551 C   0  0  2  0  0  0  0  0  0  0  0  0
   -0.9348    2.9704    0.2979 C   0  0  2  0  0  0  0  0  0  0  0  0
    2.0226    2.7039    0.8310 C   0  0  2  0  0  0  0  0  0  0  0  0
    1.4238    2.7944   -0.5891 C   0  0  0  0  0  0  0  0  0  0  0  0
    0.5285    4.9771    0.1851 C   0  0  0  0  0  0  0  0  0  0  0  0
   -0.2689    2.5345    1.6343 C   0  0  0  0  0  0  0  0  0  0  0  0
    0.8757    4.6474    1.6474 C   0  0  0  0  0  0  0  0  0  0  0  0
    2.5380    1.2975    1.1439 C   0  0  0  0  0  0  0  0  0  0  0  0
   -1.7331    1.8445   -0.3436 C   0  0  0  0  0  0  0  0  0  0  0  0
   -2.7186    1.2094    0.3843 C   0  0  0  0  0  0  0  0  0  0  0  0
   -3.3920    0.2013   -0.2750 C   0  0  0  0  0  0  0  0  0  0  0  0
   -2.1486    0.5284   -2.1497 C   0  0  0  0  0  0  0  0  0  0  0  0
    2.9997   -1.6876    0.0732 C   0  0  0  0  0  0  0  0  0  0  0  0
   -4.4441   -0.5424    0.3652 C   0  0  0  0  0  0  0  0  0  0  0  0
   -1.8313    0.1489   -3.5566 C   0  0  0  0  0  0  0  0  0  0  0  0
    2.3477   -1.8106   -1.1537 C   0  0  0  0  0  0  0  0  0  0  0  0
    2.5801   -2.4473    1.1652 C   0  0  0  0  0  0  0  0  0  0  0  0
   -5.0203   -0.5030    1.6137 C   0  0  0  0  0  0  0  0  0  0  0  0
    1.5085   -3.3300    1.0302 C   0  0  0  0  0  0  0  0  0  0  0  0
    1.2760   -2.6933   -1.2887 C   0  0  0  0  0  0  0  0  0  0  0  0
   -6.0174   -1.5074    1.6183 C   0  0  0  0  0  0  0  0  0  0  0  0
    0.8565   -3.4528   -0.1968 C   0  0  0  0  0  0  0  0  0  0  0  0
   -5.9796   -2.0890    0.3722 C   0  0  0  0  0  0  0  0  0  0  0  0
    2.0133   -1.2724   -3.4458 C   0  0  0  0  0  0  0  0  0  0  0  0
   -0.0040   -4.9528    1.8872 C   0  0  0  0  0  0  0  0  0  0  0  0
   -0.1940    3.8973   -1.5684 H   0  0  0  0  0  0  0  0  0  0  0  0
   -1.6869    3.7397    0.5332 H   0  0  0  0  0  0  0  0  0  0  0  0
    2.9013    3.3651    0.8707 H   0  0  0  0  0  0  0  0  0  0  0  0
    1.1768    1.8049   -0.9901 H   0  0  0  0  0  0  0  0  0  0  0  0
    2.1595    3.2424   -1.2688 H   0  0  0  0  0  0  0  0  0  0  0  0
   -0.3053    5.6880    0.1517 H   0  0  0  0  0  0  0  0  0  0  0  0
    1.3831    5.4555   -0.3087 H   0  0  0  0  0  0  0  0  0  0  0  0
   -0.9310    2.8010    2.4692 H   0  0  0  0  0  0  0  0  0  0  0  0
   -0.1601    1.4460    1.7007 H   0  0  0  0  0  0  0  0  0  0  0  0
    1.7915    5.1752    1.9409 H   0  0  0  0  0  0  0  0  0  0  0  0
    0.0926    5.0230    2.3182 H   0  0  0  0  0  0  0  0  0  0  0  0
    1.7263    0.5678    1.0778 H   0  0  0  0  0  0  0  0  0  0  0  0
    2.9568    1.2614    2.1555 H   0  0  0  0  0  0  0  0  0  0  0  0
    3.5033    1.3520   -0.7629 H   0  0  0  0  0  0  0  0  0  0  0  0
   -2.9456    1.4960    1.4038 H   0  0  0  0  0  0  0  0  0  0  0  0
   -2.6832    0.3765   -4.2042 H   0  0  0  0  0  0  0  0  0  0  0  0
   -0.9592    0.6954   -3.9291 H   0  0  0  0  0  0  0  0  0  0  0  0
   -1.6184   -0.9227   -3.6182 H   0  0  0  0  0  0  0  0  0  0  0  0
    3.0698   -2.3664    2.1315 H   0  0  0  0  0  0  0  0  0  0  0  0
   -4.7641    0.1604    2.4278 H   0  0  0  0  0  0  0  0  0  0  0  0
    0.7208   -2.8414   -2.2084 H   0  0  0  0  0  0  0  0  0  0  0  0
   -6.6807   -1.7741    2.4283 H   0  0  0  0  0  0  0  0  0  0  0  0
    0.0174   -4.1183   -0.3698 H   0  0  0  0  0  0  0  0  0  0  0  0
   -6.5370   -2.8858   -0.0981 H   0  0  0  0  0  0  0  0  0  0  0  0
    2.4572   -0.6096   -4.1960 H   0  0  0  0  0  0  0  0  0  0  0  0
    0.9665   -0.9728   -3.3393 H   0  0  0  0  0  0  0  0  0  0  0  0
    2.1205   -2.2951   -3.8230 H   0  0  0  0  0  0  0  0  0  0  0  0
   -0.1947   -5.4618    2.8377 H   0  0  0  0  0  0  0  0  0  0  0  0
    0.2346   -5.7284    1.1515 H   0  0  0  0  0  0  0  0  0  0  0  0
   -0.9160   -4.4030    1.6304 H   0  0  0  0  0  0  0  0  0  0  0  0
  1  2  2  0  0  0  0
  1  3  2  0  0  0  0
  1  8  1  0  0  0  0
  1 23  1  0  0  0  0
  4 24  1  0  0  0  0
  4 33  1  0  0  0  0
  5 26  1  0  0  0  0
  5 34  1  0  0  0  0
  6 29  1  0  0  0  0
  6 35  1  0  0  0  0
  7 13  1  0  0  0  0
  7 16  1  0  0  0  0
  7 17  1  0  0  0  0
  8 18  1  0  0  0  0
  8 49  1  0  0  0  0
  9 19  2  0  0  0  0
  9 22  1  0  0  0  0
 10 21  1  0  0  0  0
 10 22  2  0  0  0  0
 11 12  1  0  0  0  0
 11 14  1  0  0  0  0
 11 15  1  0  0  0  0
 11 36  1  0  0  0  0
 12 16  1  0  0  0  0
 12 19  1  0  0  0  0
 12 37  1  0  0  0  0
 13 14  1  0  0  0  0
 13 18  1  0  0  0  0
 13 38  1  0  0  0  0
 14 39  1  0  0  0  0
 14 40  1  0  0  0  0
 15 17  1  0  0  0  0
 15 41  1  0  0  0  0
 15 42  1  0  0  0  0
 16 43  1  0  0  0  0
 16 44  1  0  0  0  0
 17 45  1  0  0  0  0
 17 46  1  0  0  0  0
 18 47  1  0  0  0  0
 18 48  1  0  0  0  0
 19 20  1  0  0  0  0
 20 21  2  0  0  0  0
 20 50  1  0  0  0  0
 21 24  1  0  0  0  0
 22 25  1  0  0  0  0
 23 26  2  0  0  0  0
 23 27  1  0  0  0  0
 24 28  2  0  0  0  0
 25 51  1  0  0  0  0
 25 52  1  0  0  0  0
 25 53  1  0  0  0  0
 26 30  1  0  0  0  0
 27 29  2  0  0  0  0
 27 54  1  0  0  0  0
 28 31  1  0  0  0  0
 28 55  1  0  0  0  0
 29 32  1  0  0  0  0
 30 32  2  0  0  0  0
 30 56  1  0  0  0  0
 31 33  2  0  0  0  0
 31 57  1  0  0  0  0
 32 58  1  0  0  0  0
 33 59  1  0  0  0  0
 34 60  1  0  0  0  0
 34 61  1  0  0  0  0
 34 62  1  0  0  0  0
 35 63  1  0  0  0  0
 35 64  1  0  0  0  0
 35 65  1  0  0  0  0
M  END
> <PUBCHEM_COMPOUND_CID>
26742444

> <PUBCHEM_CONFORMER_RMSD>
1.2

> <PUBCHEM_CONFORMER_DIVERSEORDER>
1
109
19
172
150
37
88
165
176
171
122
143
112
135
149
155
161
43
100
108
95
18
113
29
131
164
53
105
160
133
159
96
152
146
73
61
54
106
168
138
123
115
97
99
175
68
17
84
157
129
45
47
52
148
57
132
75
177
128
80
59
2
35
81
116
12
48
26
77
170
127
24
120
38
167
154
74
31
90
28
71
9
118
139
64
101
36
126
178
42
56
72
119
79
63
94
33
130
89
85
147
15
156
93
91
162
3
58
98
78
69
104
82
121
34
140
117
151
103
107
124
16
125
32
66
153
60
145
41
173
114
87
49
62
102
92
39
144
46
6
67
11
142
166
7
110
70
21
163
169
134
51
10
158
83
141
65
50
27
174
44
20
111
23
14
4
13
8
76
25
30
5
86
136
55
137
40
22

> <PUBCHEM_MMFF94_PARTIAL_CHARGES>
40
1 1.45
10 -0.62
12 0.14
13 0.27
16 0.27
17 0.27
18 0.36
19 0.17
2 -0.65
20 -0.15
21 0.36
22 0.48
23 -0.01
24 0.09
25 0.14
26 0.08
27 -0.15
28 -0.15
29 0.08
3 -0.65
30 -0.15
31 -0.15
32 -0.15
33 -0.01
34 0.28
35 0.28
4 -0.28
49 0.42
5 -0.36
50 0.15
54 0.15
55 0.15
56 0.15
57 0.15
58 0.15
59 0.15
6 -0.36
7 -0.81
8 -0.91
9 -0.62

> <PUBCHEM_EFFECTIVE_ROTOR_COUNT>
9.2

> <PUBCHEM_PHARMACOPHORE_FEATURES>
13
1 2 acceptor
1 3 acceptor
1 4 acceptor
1 5 acceptor
1 6 acceptor
1 7 cation
1 8 donor
1 9 acceptor
3 9 10 22 cation
5 4 24 28 31 33 rings
6 23 26 27 29 30 32 rings
6 9 10 19 20 21 22 rings
8 7 11 12 13 14 15 16 17 rings

> <PUBCHEM_HEAVY_ATOM_COUNT>
35

> <PUBCHEM_ATOM_DEF_STEREO_COUNT>
3

> <PUBCHEM_ATOM_UDEF_STEREO_COUNT>
0

> <PUBCHEM_BOND_DEF_STEREO_COUNT>
0

> <PUBCHEM_BOND_UDEF_STEREO_COUNT>
0

> <PUBCHEM_ISOTOPIC_ATOM_COUNT>
0

> <PUBCHEM_COMPONENT_COUNT>
1

> <PUBCHEM_CACTVS_TAUTO_COUNT>
1

> <PUBCHEM_CONFORMER_ID>
01980EAC00000001

> <PUBCHEM_MMFF94_ENERGY>
90.9058

> <PUBCHEM_FEATURE_SELFOVERLAP>
65.996

> <PUBCHEM_SHAPE_FINGERPRINT>
10316853 100 18117848917736636075
11421498 54 18122365505107680926
114674 6 18337675329454020779
12106331 60 18123169240092403866
12522641 24 18196958737043380195
12788726 201 17621582927047372997
131258 38 17750782436871350450
13402501 40 18261957448164387507
1361 2 18264488562881489947
13692115 46 12336532932380692321
13947930 73 17896587578386497522
15328829 1 17202749515280864309
15975801 100 17313370266974675014
20764821 26 18263643046608002522
21133410 38 17765728201902836099
21315759 227 18188479160543831898
21796203 349 18270958050803289648
238918 7 17115810253977295347
3737641 26 18058173830218443606
392239 28 18410569613075847055
394071 54 18201731660863246219
42626532 9 17408818622221793438
463206 1 18340487858517313339
469060 322 18189633647938002792
5309563 4 18411133632591792953
66674814 147 18339093664867429762
86090 222 18115317807646544563

> <PUBCHEM_SHAPE_MULTIPOLES>
674.86
9.56
6.65
2.66
11.25
2.11
2.2
-7.03
-2.42
-3.2
-3.97
-0.04
-0.99
1.29

> <PUBCHEM_SHAPE_SELFOVERLAP>
1449.842

> <PUBCHEM_SHAPE_VOLUME>
375

> <PUBCHEM_COORDINATE_TYPE>
2
5
10

$$$$
