26744624
  -OEChem-12032416373D

 52 55  0     1  0  0  0  0  0999 V2000
    0.8215   -4.3037   -1.1230 Cl  0  0  0  0  0  0  0  0  0  0  0  0
   -3.7242    2.3115   -0.0947 S   0  0  0  0  0  0  0  0  0  0  0  0
   -2.6110   -4.1017    2.5837 F   0  0  0  0  0  0  0  0  0  0  0  0
    6.0616   -0.3492    1.2163 O   0  0  0  0  0  0  0  0  0  0  0  0
    1.5061    1.0073   -2.2960 O   0  0  0  0  0  0  0  0  0  0  0  0
   -3.9157    2.8689   -1.4267 O   0  0  0  0  0  0  0  0  0  0  0  0
   -4.2382    0.9847    0.2143 O   0  0  0  0  0  0  0  0  0  0  0  0
    2.7985    1.0872    0.9709 N   0  0  1  0  0  0  0  0  0  0  0  0
    1.2590   -0.8080   -1.0076 N   0  0  0  0  0  0  0  0  0  0  0  0
    0.4298    0.2909   -2.8349 N   0  0  0  0  0  0  0  0  0  0  0  0
    3.1084    0.8635   -0.4558 C   0  0  1  0  0  0  0  0  0  0  0  0
    4.3313   -0.0725   -0.4511 C   0  0  0  0  0  0  0  0  0  0  0  0
    4.6624   -0.2815    1.0213 C   0  0  2  0  0  0  0  0  0  0  0  0
    4.0579    0.9346    1.6970 C   0  0  0  0  0  0  0  0  0  0  0  0
    2.1706    2.3768    1.2270 C   0  0  0  0  0  0  0  0  0  0  0  0
    1.9359    0.2913   -1.2243 C   0  0  0  0  0  0  0  0  0  0  0  0
    0.7015    2.3603    0.8980 C   0  0  0  0  0  0  0  0  0  0  0  0
    0.1886    3.2503   -0.0457 C   0  0  0  0  0  0  0  0  0  0  0  0
   -0.1467    1.4553    1.5364 C   0  0  0  0  0  0  0  0  0  0  0  0
    0.3459   -0.7655   -2.0207 C   0  0  0  0  0  0  0  0  0  0  0  0
   -1.1723    3.2350   -0.3515 C   0  0  0  0  0  0  0  0  0  0  0  0
   -1.5076    1.4401    1.2306 C   0  0  0  0  0  0  0  0  0  0  0  0
   -2.0204    2.3299    0.2867 C   0  0  0  0  0  0  0  0  0  0  0  0
   -0.6661   -1.8114   -2.2062 C   0  0  0  0  0  0  0  0  0  0  0  0
   -1.1676   -2.4516   -0.9155 C   0  0  0  0  0  0  0  0  0  0  0  0
   -4.4474    3.4593    1.0556 C   0  0  0  0  0  0  0  0  0  0  0  0
   -0.5497   -3.5761   -0.3680 C   0  0  0  0  0  0  0  0  0  0  0  0
   -2.2726   -1.8844   -0.2807 C   0  0  0  0  0  0  0  0  0  0  0  0
   -1.0371   -4.1334    0.8143 C   0  0  0  0  0  0  0  0  0  0  0  0
   -2.7600   -2.4418    0.9014 C   0  0  0  0  0  0  0  0  0  0  0  0
   -2.1423   -3.5663    1.4489 C   0  0  0  0  0  0  0  0  0  0  0  0
    3.4203    1.8016   -0.9365 H   0  0  0  0  0  0  0  0  0  0  0  0
    4.1465   -1.0363   -0.9393 H   0  0  0  0  0  0  0  0  0  0  0  0
    5.1714    0.3991   -0.9763 H   0  0  0  0  0  0  0  0  0  0  0  0
    4.2016   -1.2040    1.3955 H   0  0  0  0  0  0  0  0  0  0  0  0
    3.9016    0.7583    2.7664 H   0  0  0  0  0  0  0  0  0  0  0  0
    4.7144    1.8083    1.5894 H   0  0  0  0  0  0  0  0  0  0  0  0
    2.6910    3.1925    0.7080 H   0  0  0  0  0  0  0  0  0  0  0  0
    2.2387    2.6188    2.2971 H   0  0  0  0  0  0  0  0  0  0  0  0
    6.3927   -1.1022    0.6977 H   0  0  0  0  0  0  0  0  0  0  0  0
    0.8378    3.9602   -0.5511 H   0  0  0  0  0  0  0  0  0  0  0  0
    0.2368    0.7602    2.2787 H   0  0  0  0  0  0  0  0  0  0  0  0
   -1.5514    3.9403   -1.0857 H   0  0  0  0  0  0  0  0  0  0  0  0
   -2.1513    0.7353    1.7488 H   0  0  0  0  0  0  0  0  0  0  0  0
   -0.2893   -2.5769   -2.8943 H   0  0  0  0  0  0  0  0  0  0  0  0
   -1.5360   -1.3899   -2.7299 H   0  0  0  0  0  0  0  0  0  0  0  0
   -5.5234    3.4912    0.8711 H   0  0  0  0  0  0  0  0  0  0  0  0
   -4.2545    3.1119    2.0723 H   0  0  0  0  0  0  0  0  0  0  0  0
   -4.0122    4.4471    0.8931 H   0  0  0  0  0  0  0  0  0  0  0  0
   -2.7635   -1.0138   -0.7033 H   0  0  0  0  0  0  0  0  0  0  0  0
   -0.5670   -5.0091    1.2544 H   0  0  0  0  0  0  0  0  0  0  0  0
   -3.6208   -2.0008    1.3951 H   0  0  0  0  0  0  0  0  0  0  0  0
  1 27  1  0  0  0  0
  2  6  2  0  0  0  0
  2  7  2  0  0  0  0
  2 23  1  0  0  0  0
  2 26  1  0  0  0  0
  3 31  1  0  0  0  0
  4 13  1  0  0  0  0
  4 40  1  0  0  0  0
  5 10  1  0  0  0  0
  5 16  1  0  0  0  0
  8 11  1  0  0  0  0
  8 14  1  0  0  0  0
  8 15  1  0  0  0  0
  9 16  2  0  0  0  0
  9 20  1  0  0  0  0
 10 20  2  0  0  0  0
 11 12  1  0  0  0  0
 11 16  1  0  0  0  0
 11 32  1  0  0  0  0
 12 13  1  0  0  0  0
 12 33  1  0  0  0  0
 12 34  1  0  0  0  0
 13 14  1  0  0  0  0
 13 35  1  0  0  0  0
 14 36  1  0  0  0  0
 14 37  1  0  0  0  0
 15 17  1  0  0  0  0
 15 38  1  0  0  0  0
 15 39  1  0  0  0  0
 17 18  2  0  0  0  0
 17 19  1  0  0  0  0
 18 21  1  0  0  0  0
 18 41  1  0  0  0  0
 19 22  2  0  0  0  0
 19 42  1  0  0  0  0
 20 24  1  0  0  0  0
 21 23  2  0  0  0  0
 21 43  1  0  0  0  0
 22 23  1  0  0  0  0
 22 44  1  0  0  0  0
 24 25  1  0  0  0  0
 24 45  1  0  0  0  0
 24 46  1  0  0  0  0
 25 27  2  0  0  0  0
 25 28  1  0  0  0  0
 26 47  1  0  0  0  0
 26 48  1  0  0  0  0
 26 49  1  0  0  0  0
 27 29  1  0  0  0  0
 28 30  2  0  0  0  0
 28 50  1  0  0  0  0
 29 31  2  0  0  0  0
 29 51  1  0  0  0  0
 30 31  1  0  0  0  0
 30 52  1  0  0  0  0
M  END
> <PUBCHEM_COMPOUND_CID>
26744624

> <PUBCHEM_CONFORMER_RMSD>
1.4

> <PUBCHEM_CONFORMER_DIVERSEORDER>
1
33
74
13
76
60
73
70
47
53
68
31
17
14
81
40
37
80
11
78
21
25
77
58
24
45
59
43
54
46
18
8
48
19
15
35
72
67
50
2
36
49
62
75
65
26
44
12
32
4
42
30
57
6
29
23
7
64
38
79
63
34
51
66
10
5
56
61
22
52
41
55
69
39
9
28
16
3
20
71
27

> <PUBCHEM_MMFF94_PARTIAL_CHARGES>
38
1 -0.18
10 -0.41
11 0.45
13 0.28
14 0.27
15 0.41
16 0.3
17 -0.14
18 -0.15
19 -0.15
2 1.2
20 0.34
21 -0.15
22 -0.15
23 -0.01
24 0.32
25 -0.14
26 0.11
27 0.18
28 -0.15
29 -0.15
3 -0.19
30 -0.15
31 0.19
4 -0.68
40 0.4
41 0.15
42 0.15
43 0.15
44 0.15
5 -0.02
50 0.15
51 0.15
52 0.15
6 -0.65
7 -0.65
8 -0.81
9 -0.57

> <PUBCHEM_EFFECTIVE_ROTOR_COUNT>
7

> <PUBCHEM_PHARMACOPHORE_FEATURES>
10
1 4 acceptor
1 4 donor
1 6 acceptor
1 7 acceptor
1 8 cation
3 9 10 20 cation
5 5 9 10 16 20 rings
5 8 11 12 13 14 rings
6 17 18 19 21 22 23 rings
6 25 27 28 29 30 31 rings

> <PUBCHEM_HEAVY_ATOM_COUNT>
31

> <PUBCHEM_ATOM_DEF_STEREO_COUNT>
2

> <PUBCHEM_ATOM_UDEF_STEREO_COUNT>
0

> <PUBCHEM_BOND_DEF_STEREO_COUNT>
0

> <PUBCHEM_BOND_UDEF_STEREO_COUNT>
0

> <PUBCHEM_ISOTOPIC_ATOM_COUNT>
0

> <PUBCHEM_COMPONENT_COUNT>
1

> <PUBCHEM_CACTVS_TAUTO_COUNT>
1

> <PUBCHEM_CONFORMER_ID>
0198173000000001

> <PUBCHEM_MMFF94_ENERGY>
59.2555

> <PUBCHEM_FEATURE_SELFOVERLAP>
50.764

> <PUBCHEM_SHAPE_FINGERPRINT>
11387372 6 18124024630332959842
11421498 54 17394185647321608244
12156800 1 18190769529301225830
12422481 6 18057066776775939019
12633257 1 17552375670586000370
12788726 201 17973745836883034254
13726171 33 17836126546177244121
14725015 67 18270669987594042547
15475509 84 18118690047840944839
16114785 44 17772724260897163058
16728300 4 17392179742948868496
20567600 347 18197497329445941449
20764821 26 18124045787056315127
238918 7 18201726140933536831
24893992 56 18265037211544011615
35225 105 18127670687350074386
392239 28 16537928331440149586
4058900 60 18052550871782954092
463206 1 17475532577221452057
57527573 199 18270966721772339493
6669772 16 18196648493204413235
7097593 13 17261030442506635094

> <PUBCHEM_SHAPE_MULTIPOLES>
597.99
7.63
6.24
2.19
5.36
5.62
0.58
-5.03
-3.1
-5.94
-1.69
0.2
0.94
1.72

> <PUBCHEM_SHAPE_SELFOVERLAP>
1269.166

> <PUBCHEM_SHAPE_VOLUME>
339.8

> <PUBCHEM_COORDINATE_TYPE>
2
5
10

$$$$
