75536033
  -OEChem-12032416323D

 69 71  0     1  0  0  0  0  0999 V2000
    3.7690   -1.0637   -1.1000 O   0  0  0  0  0  0  0  0  0  0  0  0
   -1.4049    3.9056    0.3938 O   0  0  0  0  0  0  0  0  0  0  0  0
   -0.1934   -0.1442    1.4141 O   0  0  0  0  0  0  0  0  0  0  0  0
   -3.0461   -4.3105    0.5462 O   0  0  0  0  0  0  0  0  0  0  0  0
   -3.0776   -2.9155   -1.2807 O   0  0  0  0  0  0  0  0  0  0  0  0
    2.4267    0.6698   -0.3260 N   0  0  0  0  0  0  0  0  0  0  0  0
   -0.1432    2.0367   -0.1726 N   0  0  0  0  0  0  0  0  0  0  0  0
   -2.5027    2.0235   -0.3372 N   0  0  0  0  0  0  0  0  0  0  0  0
    7.2765   -0.5188   -0.1852 N   0  0  0  0  0  0  0  0  0  0  0  0
   -0.9529   -1.4461   -0.3602 N   0  0  0  0  0  0  0  0  0  0  0  0
   -3.8255    2.5967   -0.2238 C   0  0  0  0  0  0  0  0  0  0  0  0
   -0.0198    0.7163   -0.8088 C   0  0  1  0  0  0  0  0  0  0  0  0
    4.5837    0.1718    0.7496 C   0  0  0  0  0  0  0  0  0  0  0  0
    1.3896    0.4372   -1.3344 C   0  0  0  0  0  0  0  0  0  0  0  0
    2.1963    1.7659    0.6200 C   0  0  0  0  0  0  0  0  0  0  0  0
   -4.3963    2.3907    1.1833 C   0  0  0  0  0  0  0  0  0  0  0  0
   -4.7652    2.0293   -1.2929 C   0  0  0  0  0  0  0  0  0  0  0  0
    1.1084    2.7246    0.1557 C   0  0  0  0  0  0  0  0  0  0  0  0
    3.5644   -0.1393   -0.3100 C   0  0  0  0  0  0  0  0  0  0  0  0
   -4.7816    0.9357    1.4510 C   0  0  0  0  0  0  0  0  0  0  0  0
   -5.1499    0.5750   -1.0213 C   0  0  0  0  0  0  0  0  0  0  0  0
    5.3093   -1.0987    1.1977 C   0  0  0  0  0  0  0  0  0  0  0  0
    5.5783    1.2248    0.2562 C   0  0  0  0  0  0  0  0  0  0  0  0
   -5.7256    0.3972    0.3804 C   0  0  0  0  0  0  0  0  0  0  0  0
   -1.3552    2.7397   -0.0111 C   0  0  0  0  0  0  0  0  0  0  0  0
    6.3306   -1.5778    0.1648 C   0  0  0  0  0  0  0  0  0  0  0  0
    6.5883    0.6478   -0.7370 C   0  0  0  0  0  0  0  0  0  0  0  0
   -0.3953   -0.3169    0.2150 C   0  0  0  0  0  0  0  0  0  0  0  0
   -1.3787   -2.5952    0.4056 C   0  0  2  0  0  0  0  0  0  0  0  0
   -0.2295   -3.5809    0.5497 C   0  0  0  0  0  0  0  0  0  0  0  0
   -2.5875   -3.2786   -0.2162 C   0  0  0  0  0  0  0  0  0  0  0  0
   -4.1902   -5.0022    0.0344 C   0  0  0  0  0  0  0  0  0  0  0  0
   -3.7326    3.6759   -0.3977 H   0  0  0  0  0  0  0  0  0  0  0  0
   -0.7194    0.6756   -1.6519 H   0  0  0  0  0  0  0  0  0  0  0  0
    4.0762    0.5483    1.6433 H   0  0  0  0  0  0  0  0  0  0  0  0
    1.4677   -0.5848   -1.7220 H   0  0  0  0  0  0  0  0  0  0  0  0
    1.6163    1.1145   -2.1673 H   0  0  0  0  0  0  0  0  0  0  0  0
    3.1159    2.3340    0.7763 H   0  0  0  0  0  0  0  0  0  0  0  0
    1.9213    1.3152    1.5800 H   0  0  0  0  0  0  0  0  0  0  0  0
   -5.2898    3.0174    1.2996 H   0  0  0  0  0  0  0  0  0  0  0  0
   -3.6780    2.7206    1.9433 H   0  0  0  0  0  0  0  0  0  0  0  0
   -4.3023    2.1032   -2.2844 H   0  0  0  0  0  0  0  0  0  0  0  0
   -5.6795    2.6357   -1.3225 H   0  0  0  0  0  0  0  0  0  0  0  0
    0.9290    3.4845    0.9238 H   0  0  0  0  0  0  0  0  0  0  0  0
    1.4257    3.2506   -0.7532 H   0  0  0  0  0  0  0  0  0  0  0  0
   -5.2595    0.8582    2.4342 H   0  0  0  0  0  0  0  0  0  0  0  0
   -3.8782    0.3145    1.4883 H   0  0  0  0  0  0  0  0  0  0  0  0
   -4.2756   -0.0750   -1.1442 H   0  0  0  0  0  0  0  0  0  0  0  0
   -5.8882    0.2490   -1.7630 H   0  0  0  0  0  0  0  0  0  0  0  0
    4.5928   -1.9035    1.4025 H   0  0  0  0  0  0  0  0  0  0  0  0
    5.8312   -0.8948    2.1423 H   0  0  0  0  0  0  0  0  0  0  0  0
    6.1213    1.6314    1.1195 H   0  0  0  0  0  0  0  0  0  0  0  0
    5.0678    2.0683   -0.2211 H   0  0  0  0  0  0  0  0  0  0  0  0
   -6.6881    0.9191    0.4477 H   0  0  0  0  0  0  0  0  0  0  0  0
   -5.9249   -0.6645    0.5648 H   0  0  0  0  0  0  0  0  0  0  0  0
   -2.4365    1.0364   -0.5523 H   0  0  0  0  0  0  0  0  0  0  0  0
    5.8646   -1.9855   -0.7365 H   0  0  0  0  0  0  0  0  0  0  0  0
    6.8976   -2.4066    0.6050 H   0  0  0  0  0  0  0  0  0  0  0  0
    7.3335    1.4161   -0.9713 H   0  0  0  0  0  0  0  0  0  0  0  0
    6.0971    0.3869   -1.6820 H   0  0  0  0  0  0  0  0  0  0  0  0
    7.9415   -0.8741   -0.8716 H   0  0  0  0  0  0  0  0  0  0  0  0
   -1.0501   -1.4908   -1.3706 H   0  0  0  0  0  0  0  0  0  0  0  0
   -1.6847   -2.2401    1.3971 H   0  0  0  0  0  0  0  0  0  0  0  0
    0.0761   -3.9754   -0.4263 H   0  0  0  0  0  0  0  0  0  0  0  0
    0.6460   -3.1023    1.0021 H   0  0  0  0  0  0  0  0  0  0  0  0
   -0.5076   -4.4331    1.1784 H   0  0  0  0  0  0  0  0  0  0  0  0
   -4.4501   -5.7967    0.7389 H   0  0  0  0  0  0  0  0  0  0  0  0
   -3.9572   -5.4540   -0.9344 H   0  0  0  0  0  0  0  0  0  0  0  0
   -5.0393   -4.3173   -0.0516 H   0  0  0  0  0  0  0  0  0  0  0  0
  1 19  2  0  0  0  0
  2 25  2  0  0  0  0
  3 28  2  0  0  0  0
  4 31  1  0  0  0  0
  4 32  1  0  0  0  0
  5 31  2  0  0  0  0
  6 14  1  0  0  0  0
  6 15  1  0  0  0  0
  6 19  1  0  0  0  0
  7 12  1  0  0  0  0
  7 18  1  0  0  0  0
  7 25  1  0  0  0  0
  8 11  1  0  0  0  0
  8 25  1  0  0  0  0
  8 56  1  0  0  0  0
  9 26  1  0  0  0  0
  9 27  1  0  0  0  0
  9 61  1  0  0  0  0
 10 28  1  0  0  0  0
 10 29  1  0  0  0  0
 10 62  1  0  0  0  0
 11 16  1  0  0  0  0
 11 17  1  0  0  0  0
 11 33  1  0  0  0  0
 12 14  1  0  0  0  0
 12 28  1  0  0  0  0
 12 34  1  0  0  0  0
 13 19  1  0  0  0  0
 13 22  1  0  0  0  0
 13 23  1  0  0  0  0
 13 35  1  0  0  0  0
 14 36  1  0  0  0  0
 14 37  1  0  0  0  0
 15 18  1  0  0  0  0
 15 38  1  0  0  0  0
 15 39  1  0  0  0  0
 16 20  1  0  0  0  0
 16 40  1  0  0  0  0
 16 41  1  0  0  0  0
 17 21  1  0  0  0  0
 17 42  1  0  0  0  0
 17 43  1  0  0  0  0
 18 44  1  0  0  0  0
 18 45  1  0  0  0  0
 20 24  1  0  0  0  0
 20 46  1  0  0  0  0
 20 47  1  0  0  0  0
 21 24  1  0  0  0  0
 21 48  1  0  0  0  0
 21 49  1  0  0  0  0
 22 26  1  0  0  0  0
 22 50  1  0  0  0  0
 22 51  1  0  0  0  0
 23 27  1  0  0  0  0
 23 52  1  0  0  0  0
 23 53  1  0  0  0  0
 24 54  1  0  0  0  0
 24 55  1  0  0  0  0
 26 57  1  0  0  0  0
 26 58  1  0  0  0  0
 27 59  1  0  0  0  0
 27 60  1  0  0  0  0
 29 30  1  0  0  0  0
 29 31  1  0  0  0  0
 29 63  1  0  0  0  0
 30 64  1  0  0  0  0
 30 65  1  0  0  0  0
 30 66  1  0  0  0  0
 32 67  1  0  0  0  0
 32 68  1  0  0  0  0
 32 69  1  0  0  0  0
M  END
> <PUBCHEM_COMPOUND_CID>
75536033

> <PUBCHEM_CONFORMER_RMSD>
1.2

> <PUBCHEM_CONFORMER_DIVERSEORDER>
1
140
86
104
84
61
5
121
94
18
105
47
120
137
53
52
142
63
136
93
75
49
85
118
135
129
45
119
83
98
131
73
15
115
82
46
141
59
32
54
108
130
36
41
55
12
148
113
48
116
150
143
51
22
31
127
151
88
117
100
107
109
95
106
19
34
64
101
91
56
13
71
92
134
147
145
57
114
89
50
38
97
16
23
14
99
37
112
25
17
152
43
125
146
123
42
33
44
39
26
128
74
77
7
81
28
103
70
144
111
3
29
62
67
68
69
30
72
35
132
40
78
139
10
27
21
66
133
6
102
126
80
87
24
110
96
65
122
149
9
60
2
138
58
76
79
90
4
20
124
11
8

> <PUBCHEM_MMFF94_PARTIAL_CHARGES>
27
1 -0.57
10 -0.73
11 0.3
12 0.36
13 0.06
14 0.3
15 0.3
18 0.3
19 0.57
2 -0.57
25 0.69
26 0.27
27 0.27
28 0.57
29 0.36
3 -0.57
31 0.66
32 0.28
4 -0.43
5 -0.57
56 0.37
6 -0.66
61 0.36
62 0.37
7 -0.66
8 -0.73
9 -0.9

> <PUBCHEM_EFFECTIVE_ROTOR_COUNT>
13.6

> <PUBCHEM_PHARMACOPHORE_FEATURES>
11
1 1 acceptor
1 10 donor
1 2 acceptor
1 3 acceptor
1 5 acceptor
1 8 donor
1 9 cation
1 9 donor
6 11 16 17 20 21 24 rings
6 6 7 12 14 15 18 rings
6 9 13 22 23 26 27 rings

> <PUBCHEM_HEAVY_ATOM_COUNT>
32

> <PUBCHEM_ATOM_DEF_STEREO_COUNT>
2

> <PUBCHEM_ATOM_UDEF_STEREO_COUNT>
0

> <PUBCHEM_BOND_DEF_STEREO_COUNT>
0

> <PUBCHEM_BOND_UDEF_STEREO_COUNT>
0

> <PUBCHEM_ISOTOPIC_ATOM_COUNT>
0

> <PUBCHEM_COMPONENT_COUNT>
1

> <PUBCHEM_CACTVS_TAUTO_COUNT>
4

> <PUBCHEM_CONFORMER_ID>
048096A100000001

> <PUBCHEM_MMFF94_ENERGY>
51.8725

> <PUBCHEM_FEATURE_SELFOVERLAP>
55.822

> <PUBCHEM_SHAPE_FINGERPRINT>
10050765 1 18266177417227150724
10119406 146 18270126686874076886
10906281 52 18201452354459982716
1100329 8 18410291440949897625
11007060 377 18341888597729739505
11135926 11 18192426365050642133
11578080 2 16987137547551499992
12293681 25 17916608469341310822
12597179 24 18201159845432688014
12645989 146 18053661653911434623
13052359 8 18408885131444710447
13140716 1 18340769354958616081
13692115 27 18053962906457967567
14790565 3 18193835942465797881
14856354 85 18342739623892496788
14866123 147 18409726253186847891
15021287 119 17167867477870344644
15042514 8 18410294739526556713
15183329 4 18410567375513488742
15849732 13 17531251630096961828
15927050 60 18338796697886315222
17627616 140 18190728757593773323
19311894 1 18410851092806045171
19591789 44 18122627150045695015
20028762 73 18272084990028498327
20197701 30 18115305562166898441
21304304 249 18411699898629264397
21703447 108 17980190104751097168
21796203 349 15965721594140118217
23559900 14 18341885351072184176
283562 15 18126284143069313865
3178227 256 18336842909395961281
3383291 50 18267017259458800922
38695281 34 18192710043044407705
392239 28 18271249304945922273
5486654 2 18339638945579063117
563151 97 18050560751753052909
59755656 520 18334568010503787981
6376802 137 17489304231227084177
7226269 152 18412823564625488501
9896288 288 18129388103660810337

> <PUBCHEM_SHAPE_MULTIPOLES>
604.29
15.12
5.26
1.15
18.42
6.01
-0.01
0.25
-0.17
-8.84
-0.4
-0.5
-0.13
-0.37

> <PUBCHEM_SHAPE_SELFOVERLAP>
1235.154

> <PUBCHEM_SHAPE_VOLUME>
342.9

> <PUBCHEM_COORDINATE_TYPE>
2
5
10

$$$$
