7164881
  -OEChem-12032416363D

 69 72  0     1  0  0  0  0  0999 V2000
   -6.0488   -1.6376    0.8874 S   0  0  0  0  0  0  0  0  0  0  0  0
   -1.4889    0.2914    1.2103 O   0  0  0  0  0  0  0  0  0  0  0  0
   -4.3975    0.3954   -0.9532 O   0  0  0  0  0  0  0  0  0  0  0  0
    2.3604   -1.1582   -1.1988 O   0  0  0  0  0  0  0  0  0  0  0  0
   -1.9288    4.6389    2.1726 O   0  0  0  0  0  0  0  0  0  0  0  0
   -3.2734    3.4440    0.7400 O   0  0  0  0  0  0  0  0  0  0  0  0
    5.0563    1.9973   -1.6029 O   0  0  0  0  0  0  0  0  0  0  0  0
   -2.6725   -1.1393   -0.7563 N   0  0  0  0  0  0  0  0  0  0  0  0
    0.1841   -1.7355   -0.6663 N   0  0  0  0  0  0  0  0  0  0  0  0
   -1.1400    2.0390   -0.2874 N   0  0  0  0  0  0  0  0  0  0  0  0
    1.9911   -2.8154    0.3944 N   0  0  0  0  0  0  0  0  0  0  0  0
   -1.6699   -0.1407   -1.1334 C   0  0  2  0  0  0  0  0  0  0  0  0
   -0.3632   -0.7646   -1.6189 C   0  0  0  0  0  0  0  0  0  0  0  0
   -2.1877   -2.5062   -0.5168 C   0  0  0  0  0  0  0  0  0  0  0  0
   -0.7882   -2.5378    0.0874 C   0  0  0  0  0  0  0  0  0  0  0  0
   -1.4206    0.7301    0.0652 C   0  0  0  0  0  0  0  0  0  0  0  0
   -4.0340   -0.7644   -0.7471 C   0  0  0  0  0  0  0  0  0  0  0  0
    1.5884   -1.8586   -0.5404 C   0  0  0  0  0  0  0  0  0  0  0  0
   -0.8851    3.0811    0.6808 C   0  0  1  0  0  0  0  0  0  0  0  0
    0.1029    4.1221    0.1339 C   0  0  0  0  0  0  0  0  0  0  0  0
   -5.0171   -1.8063   -0.4690 C   0  0  0  0  0  0  0  0  0  0  0  0
   -2.1677    3.7246    1.1911 C   0  0  0  0  0  0  0  0  0  0  0  0
    1.4258    3.5551   -0.3295 C   0  0  0  0  0  0  0  0  0  0  0  0
   -5.2622   -2.9708   -1.1631 C   0  0  0  0  0  0  0  0  0  0  0  0
    3.3148   -3.1751    0.7505 C   0  0  0  0  0  0  0  0  0  0  0  0
    1.5816    3.1414   -1.6526 C   0  0  0  0  0  0  0  0  0  0  0  0
    2.4901    3.4452    0.5655 C   0  0  0  0  0  0  0  0  0  0  0  0
   -6.3109   -3.7344   -0.5737 C   0  0  0  0  0  0  0  0  0  0  0  0
   -6.8272   -3.1246    0.5483 C   0  0  0  0  0  0  0  0  0  0  0  0
    3.5350   -4.1607    1.7126 C   0  0  0  0  0  0  0  0  0  0  0  0
    4.3975   -2.5440    0.1381 C   0  0  0  0  0  0  0  0  0  0  0  0
    2.8017    2.6183   -2.0806 C   0  0  0  0  0  0  0  0  0  0  0  0
    3.7101    2.9219    0.1375 C   0  0  0  0  0  0  0  0  0  0  0  0
    3.8659    2.5085   -1.1855 C   0  0  0  0  0  0  0  0  0  0  0  0
   -3.0826    5.3052    2.6952 C   0  0  0  0  0  0  0  0  0  0  0  0
    4.8380   -4.5153    2.0624 C   0  0  0  0  0  0  0  0  0  0  0  0
    5.7005   -2.8986    0.4877 C   0  0  0  0  0  0  0  0  0  0  0  0
    5.9206   -3.8843    1.4499 C   0  0  0  0  0  0  0  0  0  0  0  0
    6.1016    1.9129   -0.6354 C   0  0  0  0  0  0  0  0  0  0  0  0
   -2.0945    0.4689   -1.9409 H   0  0  0  0  0  0  0  0  0  0  0  0
    0.3791    0.0118   -1.8330 H   0  0  0  0  0  0  0  0  0  0  0  0
   -0.5345   -1.3139   -2.5530 H   0  0  0  0  0  0  0  0  0  0  0  0
   -2.8676   -3.0454    0.1480 H   0  0  0  0  0  0  0  0  0  0  0  0
   -2.1896   -3.0148   -1.4884 H   0  0  0  0  0  0  0  0  0  0  0  0
   -0.7933   -2.1670    1.1178 H   0  0  0  0  0  0  0  0  0  0  0  0
   -0.4578   -3.5814    0.1101 H   0  0  0  0  0  0  0  0  0  0  0  0
   -1.1954    2.3085   -1.2652 H   0  0  0  0  0  0  0  0  0  0  0  0
   -0.4341    2.5912    1.5546 H   0  0  0  0  0  0  0  0  0  0  0  0
   -0.3610    4.6638   -0.7026 H   0  0  0  0  0  0  0  0  0  0  0  0
    0.2985    4.8937    0.8904 H   0  0  0  0  0  0  0  0  0  0  0  0
    1.2801   -3.3099    0.9210 H   0  0  0  0  0  0  0  0  0  0  0  0
   -4.7249   -3.2646   -2.0560 H   0  0  0  0  0  0  0  0  0  0  0  0
    0.7629    3.2243   -2.3622 H   0  0  0  0  0  0  0  0  0  0  0  0
    2.3784    3.7620    1.5991 H   0  0  0  0  0  0  0  0  0  0  0  0
   -6.6694   -4.6818   -0.9545 H   0  0  0  0  0  0  0  0  0  0  0  0
   -7.6246   -3.4809    1.1850 H   0  0  0  0  0  0  0  0  0  0  0  0
    2.7004   -4.6607    2.1975 H   0  0  0  0  0  0  0  0  0  0  0  0
    4.3181   -1.7732   -0.6141 H   0  0  0  0  0  0  0  0  0  0  0  0
    2.9170    2.2974   -3.1123 H   0  0  0  0  0  0  0  0  0  0  0  0
    4.4940    2.8636    0.8849 H   0  0  0  0  0  0  0  0  0  0  0  0
   -2.7508    6.0036    3.4680 H   0  0  0  0  0  0  0  0  0  0  0  0
   -3.7664    4.5803    3.1471 H   0  0  0  0  0  0  0  0  0  0  0  0
   -3.5846    5.8699    1.9037 H   0  0  0  0  0  0  0  0  0  0  0  0
    5.0096   -5.2828    2.8115 H   0  0  0  0  0  0  0  0  0  0  0  0
    6.5446   -2.4077    0.0120 H   0  0  0  0  0  0  0  0  0  0  0  0
    6.9351   -4.1602    1.7223 H   0  0  0  0  0  0  0  0  0  0  0  0
    6.9743    1.4848   -1.1392 H   0  0  0  0  0  0  0  0  0  0  0  0
    5.8390    1.2323    0.1816 H   0  0  0  0  0  0  0  0  0  0  0  0
    6.3957    2.9037   -0.2728 H   0  0  0  0  0  0  0  0  0  0  0  0
  1 21  1  0  0  0  0
  1 29  1  0  0  0  0
  2 16  2  0  0  0  0
  3 17  2  0  0  0  0
  4 18  2  0  0  0  0
  5 22  1  0  0  0  0
  5 35  1  0  0  0  0
  6 22  2  0  0  0  0
  7 34  1  0  0  0  0
  7 39  1  0  0  0  0
  8 12  1  0  0  0  0
  8 14  1  0  0  0  0
  8 17  1  0  0  0  0
  9 13  1  0  0  0  0
  9 15  1  0  0  0  0
  9 18  1  0  0  0  0
 10 16  1  0  0  0  0
 10 19  1  0  0  0  0
 10 47  1  0  0  0  0
 11 18  1  0  0  0  0
 11 25  1  0  0  0  0
 11 51  1  0  0  0  0
 12 13  1  0  0  0  0
 12 16  1  0  0  0  0
 12 40  1  0  0  0  0
 13 41  1  0  0  0  0
 13 42  1  0  0  0  0
 14 15  1  0  0  0  0
 14 43  1  0  0  0  0
 14 44  1  0  0  0  0
 15 45  1  0  0  0  0
 15 46  1  0  0  0  0
 17 21  1  0  0  0  0
 19 20  1  0  0  0  0
 19 22  1  0  0  0  0
 19 48  1  0  0  0  0
 20 23  1  0  0  0  0
 20 49  1  0  0  0  0
 20 50  1  0  0  0  0
 21 24  2  0  0  0  0
 23 26  2  0  0  0  0
 23 27  1  0  0  0  0
 24 28  1  0  0  0  0
 24 52  1  0  0  0  0
 25 30  2  0  0  0  0
 25 31  1  0  0  0  0
 26 32  1  0  0  0  0
 26 53  1  0  0  0  0
 27 33  2  0  0  0  0
 27 54  1  0  0  0  0
 28 29  2  0  0  0  0
 28 55  1  0  0  0  0
 29 56  1  0  0  0  0
 30 36  1  0  0  0  0
 30 57  1  0  0  0  0
 31 37  2  0  0  0  0
 31 58  1  0  0  0  0
 32 34  2  0  0  0  0
 32 59  1  0  0  0  0
 33 34  1  0  0  0  0
 33 60  1  0  0  0  0
 35 61  1  0  0  0  0
 35 62  1  0  0  0  0
 35 63  1  0  0  0  0
 36 38  2  0  0  0  0
 36 64  1  0  0  0  0
 37 38  1  0  0  0  0
 37 65  1  0  0  0  0
 38 66  1  0  0  0  0
 39 67  1  0  0  0  0
 39 68  1  0  0  0  0
 39 69  1  0  0  0  0
M  END
> <PUBCHEM_COMPOUND_CID>
7164881

> <PUBCHEM_CONFORMER_RMSD>
1.2

> <PUBCHEM_CONFORMER_DIVERSEORDER>
1
56
45
130
18
26
52
107
83
64
79
20
117
44
28
114
11
136
25
125
78
86
104
75
102
88
5
132
42
30
116
100
91
43
9
74
99
126
81
122
71
6
89
39
94
129
7
121
10
62
103
90
37
113
48
137
66
84
3
106
46
77
108
131
32
127
109
119
2
76
38
73
111
51
98
17
36
65
110
21
55
120
92
22
61
35
63
47
57
54
128
82
49
87
58
33
72
70
133
41
4
53
40
93
96
95
101
105
14
124
80
15
59
134
19
69
112
23
29
12
13
24
123
135
68
115
118
34
97
16
31
85
60
27
8
67
50

> <PUBCHEM_MMFF94_PARTIAL_CHARGES>
53
1 -0.08
10 -0.73
11 -0.55
12 0.36
13 0.3
14 0.3
15 0.3
16 0.57
17 0.71
18 0.69
19 0.36
2 -0.57
20 0.14
21 -0.05
22 0.66
23 -0.14
24 -0.15
25 0.12
26 -0.15
27 -0.15
28 -0.15
29 -0.11
3 -0.57
30 -0.15
31 -0.15
32 -0.15
33 -0.15
34 0.08
35 0.28
36 -0.15
37 -0.15
38 -0.15
39 0.28
4 -0.57
47 0.37
5 -0.43
51 0.37
52 0.15
53 0.15
54 0.15
55 0.15
56 0.15
57 0.15
58 0.15
59 0.15
6 -0.57
60 0.15
64 0.15
65 0.15
66 0.15
7 -0.36
8 -0.66
9 -0.66

> <PUBCHEM_EFFECTIVE_ROTOR_COUNT>
14.2

> <PUBCHEM_PHARMACOPHORE_FEATURES>
11
1 10 donor
1 11 donor
1 2 acceptor
1 3 acceptor
1 4 acceptor
1 6 acceptor
1 7 acceptor
5 1 21 24 28 29 rings
6 23 26 27 32 33 34 rings
6 25 30 31 36 37 38 rings
6 8 9 12 13 14 15 rings

> <PUBCHEM_HEAVY_ATOM_COUNT>
39

> <PUBCHEM_ATOM_DEF_STEREO_COUNT>
2

> <PUBCHEM_ATOM_UDEF_STEREO_COUNT>
0

> <PUBCHEM_BOND_DEF_STEREO_COUNT>
0

> <PUBCHEM_BOND_UDEF_STEREO_COUNT>
0

> <PUBCHEM_ISOTOPIC_ATOM_COUNT>
0

> <PUBCHEM_COMPONENT_COUNT>
1

> <PUBCHEM_CACTVS_TAUTO_COUNT>
4

> <PUBCHEM_CONFORMER_ID>
006D53D100000001

> <PUBCHEM_MMFF94_ENERGY>
114.2405

> <PUBCHEM_FEATURE_SELFOVERLAP>
55.825

> <PUBCHEM_SHAPE_FINGERPRINT>
10006869 2 18343022203044833367
10074138 170 17836351667367306923
10581848 127 17843427110322528899
10675989 125 18053106417202045188
11578080 2 17750208410518246863
12608794 3 17833268623551762021
14028597 1 18269568284779006685
140371 6 18125717894959979695
14068700 675 18337382756087463163
14114211 68 17825121538915998902
14395042 24 18267867169230929457
14725015 67 17187556686176829918
15264996 151 18260265265293333389
15351339 4 18268998750588129021
15420108 30 17412230587786943025
15781502 237 18341892953164083864
15890870 6 18044940323521182124
15927050 60 17976538643367742447
15950262 2 14975422385887267200
18393751 57 17188409370302900401
19319366 153 18048597315531113086
21344244 78 18338216242242041402
3504750 166 17469300558185439106
9961470 85 18197477555290573176

> <PUBCHEM_SHAPE_MULTIPOLES>
751.31
14.37
8.89
1.85
6.98
4.02
-0.56
-16.74
-0.87
-4.53
-5.54
-0.41
1.23
-6.91

> <PUBCHEM_SHAPE_SELFOVERLAP>
1586.852

> <PUBCHEM_SHAPE_VOLUME>
421.1

> <PUBCHEM_COORDINATE_TYPE>
2
5
10

$$$$
