56774711
  -OEChem-12032416273D

 54 56  0     1  0  0  0  0  0999 V2000
   -3.1098   -2.3807   -0.9211 O   0  0  0  0  0  0  0  0  0  0  0  0
   -2.5764    0.6036    1.9983 O   0  0  0  0  0  0  0  0  0  0  0  0
   -6.3777   -1.2895    0.1612 O   0  0  0  0  0  0  0  0  0  0  0  0
    3.8587    1.7995   -0.5270 O   0  0  0  0  0  0  0  0  0  0  0  0
   -4.4159   -0.0562   -0.0543 N   0  0  0  0  0  0  0  0  0  0  0  0
    3.4238   -0.3607    0.2933 N   0  0  0  0  0  0  0  0  0  0  0  0
   -2.9654   -0.0826   -0.2803 C   0  0  1  0  0  0  0  0  0  0  0  0
   -2.2212   -0.3740    1.0262 C   0  0  1  0  0  0  0  0  0  0  0  0
   -4.9910    1.1697    0.4827 C   0  0  0  0  0  0  0  0  0  0  0  0
   -2.6228   -1.1142   -1.3486 C   0  0  0  0  0  0  0  0  0  0  0  0
   -6.1913    1.6581   -0.3358 C   0  0  0  0  0  0  0  0  0  0  0  0
   -5.1960   -1.2043   -0.1776 C   0  0  0  0  0  0  0  0  0  0  0  0
   -4.5187   -2.3865   -0.8617 C   0  0  0  0  0  0  0  0  0  0  0  0
   -0.7263   -0.3705    0.8321 C   0  0  0  0  0  0  0  0  0  0  0  0
   -6.8185    2.9131    0.2756 C   0  0  0  0  0  0  0  0  0  0  0  0
   -5.7641    1.9378   -1.7771 C   0  0  0  0  0  0  0  0  0  0  0  0
    0.0195   -1.5088    1.1387 C   0  0  0  0  0  0  0  0  0  0  0  0
   -0.0887    0.7709    0.3460 C   0  0  0  0  0  0  0  0  0  0  0  0
    1.4027   -1.5057    0.9592 C   0  0  0  0  0  0  0  0  0  0  0  0
    1.2945    0.7741    0.1664 C   0  0  0  0  0  0  0  0  0  0  0  0
    2.0402   -0.3640    0.4730 C   0  0  0  0  0  0  0  0  0  0  0  0
    4.2296    0.6833   -0.1801 C   0  0  0  0  0  0  0  0  0  0  0  0
    5.6860    0.3903   -0.2332 C   0  0  0  0  0  0  0  0  0  0  0  0
    6.6111    1.4289   -0.1289 C   0  0  0  0  0  0  0  0  0  0  0  0
    6.1273   -0.9240   -0.3859 C   0  0  0  0  0  0  0  0  0  0  0  0
    7.9778    1.1533   -0.1773 C   0  0  0  0  0  0  0  0  0  0  0  0
    7.4937   -1.1998   -0.4342 C   0  0  0  0  0  0  0  0  0  0  0  0
    8.4190   -0.1611   -0.3299 C   0  0  0  0  0  0  0  0  0  0  0  0
   -2.6969    0.9058   -0.6736 H   0  0  0  0  0  0  0  0  0  0  0  0
   -2.5459   -1.3364    1.4393 H   0  0  0  0  0  0  0  0  0  0  0  0
   -4.2312    1.9582    0.5223 H   0  0  0  0  0  0  0  0  0  0  0  0
   -5.3108    0.9572    1.5100 H   0  0  0  0  0  0  0  0  0  0  0  0
   -3.0853   -0.8547   -2.3099 H   0  0  0  0  0  0  0  0  0  0  0  0
   -1.5483   -1.1994   -1.5320 H   0  0  0  0  0  0  0  0  0  0  0  0
   -6.9813    0.9020   -0.3650 H   0  0  0  0  0  0  0  0  0  0  0  0
   -4.8197   -3.2964   -0.3320 H   0  0  0  0  0  0  0  0  0  0  0  0
   -4.9146   -2.4508   -1.8821 H   0  0  0  0  0  0  0  0  0  0  0  0
   -6.1005    3.7396    0.3086 H   0  0  0  0  0  0  0  0  0  0  0  0
   -7.1564    2.7164    1.2984 H   0  0  0  0  0  0  0  0  0  0  0  0
   -7.6859    3.2404   -0.3073 H   0  0  0  0  0  0  0  0  0  0  0  0
   -4.9578    2.6783   -1.8169 H   0  0  0  0  0  0  0  0  0  0  0  0
   -6.6053    2.3283   -2.3603 H   0  0  0  0  0  0  0  0  0  0  0  0
   -5.4171    1.0295   -2.2800 H   0  0  0  0  0  0  0  0  0  0  0  0
   -2.2889    1.4776    1.6851 H   0  0  0  0  0  0  0  0  0  0  0  0
   -0.4635   -2.4057    1.5171 H   0  0  0  0  0  0  0  0  0  0  0  0
   -0.6479    1.6710    0.1062 H   0  0  0  0  0  0  0  0  0  0  0  0
    1.9710   -2.4001    1.2017 H   0  0  0  0  0  0  0  0  0  0  0  0
    1.7136    1.6955   -0.2122 H   0  0  0  0  0  0  0  0  0  0  0  0
    3.8767   -1.2206    0.5890 H   0  0  0  0  0  0  0  0  0  0  0  0
    6.2886    2.4593   -0.0041 H   0  0  0  0  0  0  0  0  0  0  0  0
    5.4456   -1.7599   -0.5096 H   0  0  0  0  0  0  0  0  0  0  0  0
    8.6983    1.9618   -0.0953 H   0  0  0  0  0  0  0  0  0  0  0  0
    7.8380   -2.2220   -0.5619 H   0  0  0  0  0  0  0  0  0  0  0  0
    9.4829   -0.3756   -0.3694 H   0  0  0  0  0  0  0  0  0  0  0  0
  1 10  1  0  0  0  0
  1 13  1  0  0  0  0
  2  8  1  0  0  0  0
  2 44  1  0  0  0  0
  3 12  2  0  0  0  0
  4 22  2  0  0  0  0
  5  7  1  0  0  0  0
  5  9  1  0  0  0  0
  5 12  1  0  0  0  0
  6 21  1  0  0  0  0
  6 22  1  0  0  0  0
  6 49  1  0  0  0  0
  7  8  1  0  0  0  0
  7 10  1  0  0  0  0
  7 29  1  0  0  0  0
  8 14  1  0  0  0  0
  8 30  1  0  0  0  0
  9 11  1  0  0  0  0
  9 31  1  0  0  0  0
  9 32  1  0  0  0  0
 10 33  1  0  0  0  0
 10 34  1  0  0  0  0
 11 15  1  0  0  0  0
 11 16  1  0  0  0  0
 11 35  1  0  0  0  0
 12 13  1  0  0  0  0
 13 36  1  0  0  0  0
 13 37  1  0  0  0  0
 14 17  2  0  0  0  0
 14 18  1  0  0  0  0
 15 38  1  0  0  0  0
 15 39  1  0  0  0  0
 15 40  1  0  0  0  0
 16 41  1  0  0  0  0
 16 42  1  0  0  0  0
 16 43  1  0  0  0  0
 17 19  1  0  0  0  0
 17 45  1  0  0  0  0
 18 20  2  0  0  0  0
 18 46  1  0  0  0  0
 19 21  2  0  0  0  0
 19 47  1  0  0  0  0
 20 21  1  0  0  0  0
 20 48  1  0  0  0  0
 22 23  1  0  0  0  0
 23 24  2  0  0  0  0
 23 25  1  0  0  0  0
 24 26  1  0  0  0  0
 24 50  1  0  0  0  0
 25 27  2  0  0  0  0
 25 51  1  0  0  0  0
 26 28  2  0  0  0  0
 26 52  1  0  0  0  0
 27 28  1  0  0  0  0
 27 53  1  0  0  0  0
 28 54  1  0  0  0  0
M  END
> <PUBCHEM_COMPOUND_CID>
56774711

> <PUBCHEM_CONFORMER_RMSD>
1

> <PUBCHEM_CONFORMER_DIVERSEORDER>
1
15
11
9
8
14
16
13
12
2
3
6
7
5
4
10

> <PUBCHEM_MMFF94_PARTIAL_CHARGES>
36
1 -0.56
10 0.28
12 0.57
13 0.34
14 -0.14
17 -0.15
18 -0.15
19 -0.15
2 -0.68
20 -0.15
21 0.12
22 0.54
23 0.09
24 -0.15
25 -0.15
26 -0.15
27 -0.15
28 -0.15
3 -0.57
4 -0.57
44 0.4
45 0.15
46 0.15
47 0.15
48 0.15
49 0.37
5 -0.66
50 0.15
51 0.15
52 0.15
53 0.15
54 0.15
6 -0.55
7 0.3
8 0.42
9 0.3

> <PUBCHEM_EFFECTIVE_ROTOR_COUNT>
8

> <PUBCHEM_PHARMACOPHORE_FEATURES>
10
1 1 acceptor
1 2 acceptor
1 2 donor
1 3 acceptor
1 4 acceptor
1 6 donor
3 11 15 16 hydrophobe
6 1 5 7 10 12 13 rings
6 14 17 18 19 20 21 rings
6 23 24 25 26 27 28 rings

> <PUBCHEM_HEAVY_ATOM_COUNT>
28

> <PUBCHEM_ATOM_DEF_STEREO_COUNT>
2

> <PUBCHEM_ATOM_UDEF_STEREO_COUNT>
0

> <PUBCHEM_BOND_DEF_STEREO_COUNT>
0

> <PUBCHEM_BOND_UDEF_STEREO_COUNT>
0

> <PUBCHEM_ISOTOPIC_ATOM_COUNT>
0

> <PUBCHEM_COMPONENT_COUNT>
1

> <PUBCHEM_CACTVS_TAUTO_COUNT>
4

> <PUBCHEM_CONFORMER_ID>
0362503700000001

> <PUBCHEM_MMFF94_ENERGY>
85.7414

> <PUBCHEM_FEATURE_SELFOVERLAP>
50.747

> <PUBCHEM_SHAPE_FINGERPRINT>
10 15 12179846104271650794
106641 1 8646477519183461884
11135609 187 18410855469467683218
11135926 11 17632584820467171071
11315181 36 17775570857229403024
11719270 70 17632860807309251022
12082328 90 18408602569693775815
12166972 35 18340770446497806320
12236239 1 18342459253159905522
13533116 47 17458335300973085810
13690498 29 18129652153891904215
13782708 43 14692852484594530976
13885169 127 18412545405236968708
13914758 101 18407760335528981736
14251752 14 18343300362116861094
15183329 4 18272931600986077306
15419008 91 17988626511711679520
1577012 14 18113329791269116890
18681886 176 18129936887983440138
20505436 4 18261951852471159243
21033648 29 17895188948552509496
21267235 1 18341614875801870811
21756936 100 17676207962243567273
21792961 116 18131352999394949619
23035841 295 17989490748745380274
23198884 109 18261392282081752563
23389318 12 13398619581407848496
23559900 14 17489296542370500202
249057 3 17918273164395249888
2838139 119 17603586352425348652
4073 2 18187088412054136434
4098825 35 18408319964998156958
5283156 175 18060424633615605242
5385378 56 17023181579325806634
559249 180 18272652354796979383
5758199 1 17675925382600405562
57724786 102 16878518950318148220
59755656 520 17530683225192371803
6328613 192 18341049631824022041
99344 41 18342175549523040478

> <PUBCHEM_SHAPE_MULTIPOLES>
542.79
23.96
2.31
1.16
28.84
0.24
0.03
8.05
-5.65
-3.92
-0.43
-1.32
-0.06
-0.39

> <PUBCHEM_SHAPE_SELFOVERLAP>
1151.65

> <PUBCHEM_SHAPE_VOLUME>
299

> <PUBCHEM_COORDINATE_TYPE>
2
5
10

$$$$
