45784144
  -OEChem-12032416203D

 60 63  0     1  0  0  0  0  0999 V2000
   -1.8886    0.1982    0.8895 O   0  0  0  0  0  0  0  0  0  0  0  0
    2.6958   -1.5113   -2.3015 O   0  0  0  0  0  0  0  0  0  0  0  0
    3.3542    0.0911   -0.7572 N   0  0  0  0  0  0  0  0  0  0  0  0
   -2.4532    1.7419    2.4070 N   0  0  0  0  0  0  0  0  0  0  0  0
   -3.6148    1.1498    1.9475 N   0  0  0  0  0  0  0  0  0  0  0  0
    3.4198   -1.8519    1.1300 N   0  0  0  0  0  0  0  0  0  0  0  0
    2.8008   -4.5260    0.5533 N   0  0  0  0  0  0  0  0  0  0  0  0
   -5.5217   -2.4223   -1.2810 N   0  0  0  0  0  0  0  0  0  0  0  0
    0.8902    1.7525   -1.2179 C   0  0  1  0  0  0  0  0  0  0  0  0
    2.3473    2.2754   -1.1616 C   0  0  1  0  0  0  0  0  0  0  0  0
   -0.0285    2.6311   -0.3553 C   0  0  0  0  0  0  0  0  0  0  0  0
    0.4190    2.6712    1.1181 C   0  0  2  0  0  0  0  0  0  0  0  0
    0.3597    1.7008   -2.6540 C   0  0  0  0  0  0  0  0  0  0  0  0
    1.9084    2.9182    1.2477 C   0  0  0  0  0  0  0  0  0  0  0  0
    2.7526    2.7490    0.2146 C   0  0  0  0  0  0  0  0  0  0  0  0
    3.3367    1.2097   -1.6467 C   0  0  0  0  0  0  0  0  0  0  0  0
    0.0089    1.3913    1.8549 C   0  0  0  0  0  0  0  0  0  0  0  0
   -0.1196    3.0803   -3.0941 C   0  0  0  0  0  0  0  0  0  0  0  0
   -0.7638    0.6754   -2.7697 C   0  0  0  0  0  0  0  0  0  0  0  0
    2.3998    3.4087    2.5811 C   0  0  0  0  0  0  0  0  0  0  0  0
   -1.4715    1.1554    1.7626 C   0  0  0  0  0  0  0  0  0  0  0  0
    3.0273   -1.2034   -1.1597 C   0  0  0  0  0  0  0  0  0  0  0  0
   -3.2373    0.2557    1.0638 C   0  0  0  0  0  0  0  0  0  0  0  0
    3.0686   -2.2520   -0.1082 C   0  0  0  0  0  0  0  0  0  0  0  0
   -4.0118   -0.6529    0.2693 C   0  0  0  0  0  0  0  0  0  0  0  0
    2.7646   -3.5654   -0.3914 C   0  0  0  0  0  0  0  0  0  0  0  0
   -5.3979   -0.6685    0.3783 C   0  0  0  0  0  0  0  0  0  0  0  0
   -3.3797   -1.5210   -0.6142 C   0  0  0  0  0  0  0  0  0  0  0  0
    3.4562   -2.8125    2.0748 C   0  0  0  0  0  0  0  0  0  0  0  0
    3.1521   -4.1260    1.7915 C   0  0  0  0  0  0  0  0  0  0  0  0
   -6.1007   -1.5639   -0.4117 C   0  0  0  0  0  0  0  0  0  0  0  0
   -4.1728   -2.3784   -1.3598 C   0  0  0  0  0  0  0  0  0  0  0  0
    0.8622    0.7368   -0.8050 H   0  0  0  0  0  0  0  0  0  0  0  0
    2.4517    3.1426   -1.8257 H   0  0  0  0  0  0  0  0  0  0  0  0
   -1.0780    2.3399   -0.4498 H   0  0  0  0  0  0  0  0  0  0  0  0
    0.0203    3.6740   -0.6975 H   0  0  0  0  0  0  0  0  0  0  0  0
   -0.1077    3.5191    1.5796 H   0  0  0  0  0  0  0  0  0  0  0  0
    1.1495    1.3811   -3.3414 H   0  0  0  0  0  0  0  0  0  0  0  0
    3.8057    2.9868    0.3523 H   0  0  0  0  0  0  0  0  0  0  0  0
    4.3550    1.6173   -1.6559 H   0  0  0  0  0  0  0  0  0  0  0  0
    3.1219    0.8879   -2.6693 H   0  0  0  0  0  0  0  0  0  0  0  0
    0.2644    1.4643    2.9190 H   0  0  0  0  0  0  0  0  0  0  0  0
    0.5461    0.5168    1.4682 H   0  0  0  0  0  0  0  0  0  0  0  0
    0.6306    3.8599   -2.9324 H   0  0  0  0  0  0  0  0  0  0  0  0
   -0.3205    3.0637   -4.1726 H   0  0  0  0  0  0  0  0  0  0  0  0
   -1.0608    3.3808   -2.6217 H   0  0  0  0  0  0  0  0  0  0  0  0
   -1.1140    0.6071   -3.8056 H   0  0  0  0  0  0  0  0  0  0  0  0
   -0.4176   -0.3208   -2.4740 H   0  0  0  0  0  0  0  0  0  0  0  0
   -1.6269    0.9332   -2.1485 H   0  0  0  0  0  0  0  0  0  0  0  0
    2.2428    2.6512    3.3547 H   0  0  0  0  0  0  0  0  0  0  0  0
    3.4692    3.6449    2.5648 H   0  0  0  0  0  0  0  0  0  0  0  0
    1.8665    4.3198    2.8710 H   0  0  0  0  0  0  0  0  0  0  0  0
    3.6556    0.2387    0.2019 H   0  0  0  0  0  0  0  0  0  0  0  0
    2.4809   -3.9047   -1.3806 H   0  0  0  0  0  0  0  0  0  0  0  0
   -5.9326   -0.0088    1.0541 H   0  0  0  0  0  0  0  0  0  0  0  0
   -2.3029   -1.5549   -0.7422 H   0  0  0  0  0  0  0  0  0  0  0  0
    3.7381   -2.4916    3.0699 H   0  0  0  0  0  0  0  0  0  0  0  0
    3.1814   -4.8972    2.5513 H   0  0  0  0  0  0  0  0  0  0  0  0
   -7.1834   -1.6156   -0.3642 H   0  0  0  0  0  0  0  0  0  0  0  0
   -3.7288   -3.0751   -2.0633 H   0  0  0  0  0  0  0  0  0  0  0  0
  1 21  1  0  0  0  0
  1 23  1  0  0  0  0
  2 22  2  0  0  0  0
  3 16  1  0  0  0  0
  3 22  1  0  0  0  0
  3 53  1  0  0  0  0
  4  5  1  0  0  0  0
  4 21  2  0  0  0  0
  5 23  2  0  0  0  0
  6 24  2  0  0  0  0
  6 29  1  0  0  0  0
  7 26  2  0  0  0  0
  7 30  1  0  0  0  0
  8 31  2  0  0  0  0
  8 32  1  0  0  0  0
  9 10  1  0  0  0  0
  9 11  1  0  0  0  0
  9 13  1  0  0  0  0
  9 33  1  0  0  0  0
 10 15  1  0  0  0  0
 10 16  1  0  0  0  0
 10 34  1  0  0  0  0
 11 12  1  0  0  0  0
 11 35  1  0  0  0  0
 11 36  1  0  0  0  0
 12 14  1  0  0  0  0
 12 17  1  0  0  0  0
 12 37  1  0  0  0  0
 13 18  1  0  0  0  0
 13 19  1  0  0  0  0
 13 38  1  0  0  0  0
 14 15  2  0  0  0  0
 14 20  1  0  0  0  0
 15 39  1  0  0  0  0
 16 40  1  0  0  0  0
 16 41  1  0  0  0  0
 17 21  1  0  0  0  0
 17 42  1  0  0  0  0
 17 43  1  0  0  0  0
 18 44  1  0  0  0  0
 18 45  1  0  0  0  0
 18 46  1  0  0  0  0
 19 47  1  0  0  0  0
 19 48  1  0  0  0  0
 19 49  1  0  0  0  0
 20 50  1  0  0  0  0
 20 51  1  0  0  0  0
 20 52  1  0  0  0  0
 22 24  1  0  0  0  0
 23 25  1  0  0  0  0
 24 26  1  0  0  0  0
 25 27  2  0  0  0  0
 25 28  1  0  0  0  0
 26 54  1  0  0  0  0
 27 31  1  0  0  0  0
 27 55  1  0  0  0  0
 28 32  2  0  0  0  0
 28 56  1  0  0  0  0
 29 30  2  0  0  0  0
 29 57  1  0  0  0  0
 30 58  1  0  0  0  0
 31 59  1  0  0  0  0
 32 60  1  0  0  0  0
M  END
> <PUBCHEM_COMPOUND_CID>
45784144

> <PUBCHEM_CONFORMER_RMSD>
1

> <PUBCHEM_CONFORMER_DIVERSEORDER>
1
40
39
52
167
112
62
23
96
54
17
161
133
144
87
25
86
89
160
143
98
34
108
153
81
172
57
162
4
158
120
115
65
94
122
91
127
132
31
131
170
156
48
28
159
67
49
129
149
103
140
130
107
63
95
119
29
50
16
35
56
121
12
59
166
42
46
9
154
105
37
93
110
38
36
164
155
10
74
53
168
104
117
45
145
84
165
136
78
83
66
106
151
111
157
128
15
11
79
138
72
19
64
88
150
14
82
163
76
148
27
69
55
26
8
77
152
51
92
33
114
147
73
18
142
80
70
61
3
75
169
71
85
41
134
116
135
113
13
60
21
90
44
22
171
7
99
102
123
30
24
137
20
118
6
126
68
141
97
2
43
125
101
58
139
100
146
32
124
5
47
109

> <PUBCHEM_MMFF94_PARTIAL_CHARGES>
36
1 -0.28
10 0.14
12 0.14
14 -0.28
15 -0.29
16 0.3
17 0.18
2 -0.57
20 0.14
21 0.3
22 0.54
23 0.43
24 0.4
25 0.05
26 0.16
27 -0.15
28 -0.15
29 0.16
3 -0.73
30 0.16
31 0.16
32 0.16
39 0.15
4 -0.34
5 -0.34
53 0.37
54 0.15
55 0.15
56 0.15
57 0.15
58 0.15
59 0.15
6 -0.62
60 0.15
7 -0.62
8 -0.62

> <PUBCHEM_EFFECTIVE_ROTOR_COUNT>
8.8

> <PUBCHEM_PHARMACOPHORE_FEATURES>
10
1 2 acceptor
1 3 donor
1 6 acceptor
1 7 acceptor
1 8 acceptor
3 13 18 19 hydrophobe
5 1 4 5 21 23 rings
6 6 7 24 26 29 30 rings
6 8 25 27 28 31 32 rings
6 9 10 11 12 14 15 rings

> <PUBCHEM_HEAVY_ATOM_COUNT>
32

> <PUBCHEM_ATOM_DEF_STEREO_COUNT>
3

> <PUBCHEM_ATOM_UDEF_STEREO_COUNT>
0

> <PUBCHEM_BOND_DEF_STEREO_COUNT>
0

> <PUBCHEM_BOND_UDEF_STEREO_COUNT>
0

> <PUBCHEM_ISOTOPIC_ATOM_COUNT>
0

> <PUBCHEM_COMPONENT_COUNT>
1

> <PUBCHEM_CACTVS_TAUTO_COUNT>
2

> <PUBCHEM_CONFORMER_ID>
02BA9C5000000001

> <PUBCHEM_MMFF94_ENERGY>
67.1399

> <PUBCHEM_FEATURE_SELFOVERLAP>
50.751

> <PUBCHEM_SHAPE_FINGERPRINT>
11552529 35 17691405209957215202
11578080 2 18336537235951441132
12156800 1 16229665080825222534
12977781 61 17901907960466170000
13583140 156 18059851792247617093
13911987 19 15872305239376865678
14028597 1 15905955925414259396
14251757 17 14996580468286476151
14674994 50 17468188947274827060
14705955 166 15622009968276852682
17138139 8 17842004569645403654
17809404 112 17830714484105121274
18681886 176 16271382909789091084
19315092 285 17769337790616333247
20775530 9 17898586271640821034
21703447 108 17988357174011802201
25222932 49 17198821101594656055
35225 105 16826742066965265662
46194498 28 16518811586539320105
463206 1 18127422352356928467
474144 1 18413106186422290455
484985 159 17400077470404800654
5081480 168 17168151087931084405
59025328 239 18186798063125839861
66674814 147 18260837041689638290

> <PUBCHEM_SHAPE_MULTIPOLES>
616.92
9.81
5.61
3.04
16.08
4.21
-0.62
8.99
0.1
-7.09
1.35
-0.76
-2.08
-1.99

> <PUBCHEM_SHAPE_SELFOVERLAP>
1320.593

> <PUBCHEM_SHAPE_VOLUME>
338

> <PUBCHEM_COORDINATE_TYPE>
2
5
10

$$$$
