44716317
  -OEChem-12032416153D

 67 72  0     1  0  0  0  0  0999 V2000
    1.6613   -5.1161   -2.1870 F   0  0  0  0  0  0  0  0  0  0  0  0
    3.2985   -0.1552    2.3152 O   0  0  0  0  0  0  0  0  0  0  0  0
    4.3598    2.5381   -0.9441 N   0  0  2  0  0  0  0  0  0  0  0  0
    0.6081    1.8916   -1.3667 N   0  0  0  0  0  0  0  0  0  0  0  0
    5.1337   -1.1213    1.2575 N   0  0  0  0  0  0  0  0  0  0  0  0
    0.0637    3.0930   -1.6187 N   0  0  0  0  0  0  0  0  0  0  0  0
   -1.2399    2.9926   -1.3832 N   0  0  0  0  0  0  0  0  0  0  0  0
    3.9485    2.4210    1.6228 C   0  0  2  0  0  0  0  0  0  0  0  0
    2.9020    2.6167   -0.6597 C   0  0  2  0  0  0  0  0  0  0  0  0
    4.8326    1.2528    1.1457 C   0  0  2  0  0  0  0  0  0  0  0  0
    2.6191    2.3963    0.8425 C   0  0  0  0  0  0  0  0  0  0  0  0
    4.6815    3.7186    1.2378 C   0  0  0  0  0  0  0  0  0  0  0  0
    4.9252    1.2829   -0.3902 C   0  0  0  0  0  0  0  0  0  0  0  0
    5.0188    3.6815   -0.2646 C   0  0  0  0  0  0  0  0  0  0  0  0
    2.0842    1.6675   -1.5383 C   0  0  0  0  0  0  0  0  0  0  0  0
    4.3194   -0.0681    1.6378 C   0  0  0  0  0  0  0  0  0  0  0  0
   -0.3290    0.9905   -0.9640 C   0  0  0  0  0  0  0  0  0  0  0  0
    4.8724   -2.4946    1.6234 C   0  0  0  0  0  0  0  0  0  0  0  0
   -1.4967    1.7111   -0.9814 C   0  0  0  0  0  0  0  0  0  0  0  0
    4.0163   -3.1938    0.6073 C   0  0  0  0  0  0  0  0  0  0  0  0
   -2.7882    1.2105   -0.6350 C   0  0  0  0  0  0  0  0  0  0  0  0
    2.6272   -3.1708    0.7319 C   0  0  0  0  0  0  0  0  0  0  0  0
    4.6098   -3.8660   -0.4611 C   0  0  0  0  0  0  0  0  0  0  0  0
   -2.9104    0.1891    0.3070 C   0  0  0  0  0  0  0  0  0  0  0  0
   -3.9275    1.7431   -1.2384 C   0  0  0  0  0  0  0  0  0  0  0  0
    1.8315   -3.8203   -0.2117 C   0  0  0  0  0  0  0  0  0  0  0  0
    3.8141   -4.5157   -1.4048 C   0  0  0  0  0  0  0  0  0  0  0  0
   -4.1721   -0.2996    0.6458 C   0  0  0  0  0  0  0  0  0  0  0  0
   -5.1891    1.2543   -0.8996 C   0  0  0  0  0  0  0  0  0  0  0  0
    2.4251   -4.4928   -1.2801 C   0  0  0  0  0  0  0  0  0  0  0  0
   -5.3115    0.2330    0.0426 C   0  0  0  0  0  0  0  0  0  0  0  0
   -6.6201   -0.2730    0.3949 C   0  0  0  0  0  0  0  0  0  0  0  0
   -7.1692   -1.3408   -0.3149 C   0  0  0  0  0  0  0  0  0  0  0  0
   -7.3323    0.3060    1.4452 C   0  0  0  0  0  0  0  0  0  0  0  0
   -8.4307   -1.8294    0.0253 C   0  0  0  0  0  0  0  0  0  0  0  0
   -8.5936   -0.1826    1.7855 C   0  0  0  0  0  0  0  0  0  0  0  0
   -9.1428   -1.2503    1.0755 C   0  0  0  0  0  0  0  0  0  0  0  0
    3.7650    2.3871    2.7021 H   0  0  0  0  0  0  0  0  0  0  0  0
    2.5811    3.6369   -0.9152 H   0  0  0  0  0  0  0  0  0  0  0  0
    5.8379    1.3814    1.5719 H   0  0  0  0  0  0  0  0  0  0  0  0
    1.9701    3.2021    1.2088 H   0  0  0  0  0  0  0  0  0  0  0  0
    2.0791    1.4616    1.0185 H   0  0  0  0  0  0  0  0  0  0  0  0
    5.6021    3.8258    1.8233 H   0  0  0  0  0  0  0  0  0  0  0  0
    4.0500    4.5869    1.4613 H   0  0  0  0  0  0  0  0  0  0  0  0
    5.9792    1.2115   -0.6900 H   0  0  0  0  0  0  0  0  0  0  0  0
    4.4418    0.4181   -0.8589 H   0  0  0  0  0  0  0  0  0  0  0  0
    4.7156    4.6234   -0.7383 H   0  0  0  0  0  0  0  0  0  0  0  0
    6.1054    3.6199   -0.4062 H   0  0  0  0  0  0  0  0  0  0  0  0
    2.2719    1.8327   -2.6054 H   0  0  0  0  0  0  0  0  0  0  0  0
    2.2545    0.6112   -1.3050 H   0  0  0  0  0  0  0  0  0  0  0  0
    5.9598   -0.9359    0.6962 H   0  0  0  0  0  0  0  0  0  0  0  0
   -0.0841   -0.0339   -0.7191 H   0  0  0  0  0  0  0  0  0  0  0  0
    5.8402   -2.9990    1.7240 H   0  0  0  0  0  0  0  0  0  0  0  0
    4.3942   -2.5237    2.6097 H   0  0  0  0  0  0  0  0  0  0  0  0
    2.1510   -2.6527    1.5598 H   0  0  0  0  0  0  0  0  0  0  0  0
    5.6908   -3.8894   -0.5702 H   0  0  0  0  0  0  0  0  0  0  0  0
   -2.0438   -0.2401    0.8038 H   0  0  0  0  0  0  0  0  0  0  0  0
   -3.8556    2.5372   -1.9779 H   0  0  0  0  0  0  0  0  0  0  0  0
    0.7500   -3.8024   -0.1153 H   0  0  0  0  0  0  0  0  0  0  0  0
    4.2757   -5.0388   -2.2371 H   0  0  0  0  0  0  0  0  0  0  0  0
   -4.2502   -1.0944    1.3841 H   0  0  0  0  0  0  0  0  0  0  0  0
   -6.0670    1.6801   -1.3798 H   0  0  0  0  0  0  0  0  0  0  0  0
   -6.6275   -1.8040   -1.1362 H   0  0  0  0  0  0  0  0  0  0  0  0
   -6.9189    1.1390    2.0091 H   0  0  0  0  0  0  0  0  0  0  0  0
   -8.8584   -2.6608   -0.5274 H   0  0  0  0  0  0  0  0  0  0  0  0
   -9.1483    0.2681    2.6033 H   0  0  0  0  0  0  0  0  0  0  0  0
  -10.1249   -1.6308    1.3405 H   0  0  0  0  0  0  0  0  0  0  0  0
  1 30  1  0  0  0  0
  2 16  2  0  0  0  0
  3  9  1  0  0  0  0
  3 13  1  0  0  0  0
  3 14  1  0  0  0  0
  4  6  1  0  0  0  0
  4 15  1  0  0  0  0
  4 17  1  0  0  0  0
  5 16  1  0  0  0  0
  5 18  1  0  0  0  0
  5 51  1  0  0  0  0
  6  7  2  0  0  0  0
  7 19  1  0  0  0  0
  8 10  1  0  0  0  0
  8 11  1  0  0  0  0
  8 12  1  0  0  0  0
  8 38  1  0  0  0  0
  9 11  1  0  0  0  0
  9 15  1  0  0  0  0
  9 39  1  0  0  0  0
 10 13  1  0  0  0  0
 10 16  1  0  0  0  0
 10 40  1  0  0  0  0
 11 41  1  0  0  0  0
 11 42  1  0  0  0  0
 12 14  1  0  0  0  0
 12 43  1  0  0  0  0
 12 44  1  0  0  0  0
 13 45  1  0  0  0  0
 13 46  1  0  0  0  0
 14 47  1  0  0  0  0
 14 48  1  0  0  0  0
 15 49  1  0  0  0  0
 15 50  1  0  0  0  0
 17 19  2  0  0  0  0
 17 52  1  0  0  0  0
 18 20  1  0  0  0  0
 18 53  1  0  0  0  0
 18 54  1  0  0  0  0
 19 21  1  0  0  0  0
 20 22  2  0  0  0  0
 20 23  1  0  0  0  0
 21 24  2  0  0  0  0
 21 25  1  0  0  0  0
 22 26  1  0  0  0  0
 22 55  1  0  0  0  0
 23 27  2  0  0  0  0
 23 56  1  0  0  0  0
 24 28  1  0  0  0  0
 24 57  1  0  0  0  0
 25 29  2  0  0  0  0
 25 58  1  0  0  0  0
 26 30  2  0  0  0  0
 26 59  1  0  0  0  0
 27 30  1  0  0  0  0
 27 60  1  0  0  0  0
 28 31  2  0  0  0  0
 28 61  1  0  0  0  0
 29 31  1  0  0  0  0
 29 62  1  0  0  0  0
 31 32  1  0  0  0  0
 32 33  2  0  0  0  0
 32 34  1  0  0  0  0
 33 35  1  0  0  0  0
 33 63  1  0  0  0  0
 34 36  2  0  0  0  0
 34 64  1  0  0  0  0
 35 37  2  0  0  0  0
 35 65  1  0  0  0  0
 36 37  1  0  0  0  0
 36 66  1  0  0  0  0
 37 67  1  0  0  0  0
M  END
> <PUBCHEM_COMPOUND_CID>
44716317

> <PUBCHEM_CONFORMER_RMSD>
1

> <PUBCHEM_CONFORMER_DIVERSEORDER>
1
104
47
156
187
159
264
192
42
244
35
107
69
188
115
251
200
169
174
147
173
96
243
227
228
92
133
7
105
201
178
223
60
151
239
16
91
249
79
50
261
266
140
142
113
109
5
165
19
253
265
61
90
202
98
175
137
141
234
135
215
31
167
162
139
65
150
101
59
128
269
49
102
97
158
95
163
56
40
259
230
57
236
157
155
218
111
37
20
170
233
154
216
217
39
99
211
203
4
9
93
214
136
75
245
87
171
17
55
43
82
176
127
8
46
131
63
205
68
78
124
255
38
208
258
166
134
199
241
6
119
262
247
152
246
72
250
180
103
267
45
121
242
13
123
195
207
114
64
219
237
220
12
71
238
197
22
229
58
41
181
70
182
77
117
185
210
191
110
254
48
33
76
257
263
126
122
186
190
161
2
116
212
74
44
225
84
231
29
67
153
189
94
194
138
89
268
23
213
62
88
26
235
10
120
260
15
145
129
132
66
18
143
106
224
204
21
164
146
118
73
51
28
30
221
149
112
130
148
53
83
125
32
85
256
80
27
52
144
25
184
86
252
34
81
209
206
196
11
160
100
232
222
226
14
172
183
248
3
177
36
193
179
54
198
168
240
108
24

> <PUBCHEM_MMFF94_PARTIAL_CHARGES>
47
1 -0.19
10 0.06
13 0.27
14 0.27
15 0.26
16 0.57
17 -0.3
18 0.44
19 0.17
2 -0.57
20 -0.14
21 0.05
22 -0.15
23 -0.15
24 -0.15
25 -0.15
26 -0.15
27 -0.15
28 -0.15
29 -0.15
3 -0.81
30 0.19
33 -0.15
34 -0.15
35 -0.15
36 -0.15
37 -0.15
4 0.31
5 -0.73
51 0.37
52 0.15
55 0.15
56 0.15
57 0.15
58 0.15
59 0.15
6 -0.42
60 0.15
61 0.15
62 0.15
63 0.15
64 0.15
65 0.15
66 0.15
67 0.15
7 -0.23
9 0.27

> <PUBCHEM_EFFECTIVE_ROTOR_COUNT>
9.2

> <PUBCHEM_PHARMACOPHORE_FEATURES>
8
1 2 acceptor
1 3 cation
1 5 donor
5 4 6 7 17 19 rings
6 20 22 23 26 27 30 rings
6 21 24 25 28 29 31 rings
6 32 33 34 35 36 37 rings
8 3 8 9 10 11 12 13 14 rings

> <PUBCHEM_HEAVY_ATOM_COUNT>
37

> <PUBCHEM_ATOM_DEF_STEREO_COUNT>
2

> <PUBCHEM_ATOM_UDEF_STEREO_COUNT>
1

> <PUBCHEM_BOND_DEF_STEREO_COUNT>
0

> <PUBCHEM_BOND_UDEF_STEREO_COUNT>
0

> <PUBCHEM_ISOTOPIC_ATOM_COUNT>
0

> <PUBCHEM_COMPONENT_COUNT>
1

> <PUBCHEM_CACTVS_TAUTO_COUNT>
2

> <PUBCHEM_CONFORMER_ID>
02AA511D00000001

> <PUBCHEM_MMFF94_ENERGY>
96.806

> <PUBCHEM_FEATURE_SELFOVERLAP>
40.599

> <PUBCHEM_SHAPE_FINGERPRINT>
10049733 168 18341908415263075743
11374522 301 18054794979305132830
11621639 148 18339631254352965634
117089 54 18051974715226974062
11828532 37 17458352935106808411
12522641 24 18130791165652867257
12623949 98 18335701607366766092
12717326 69 18189345735217142347
13008946 62 17609800929954563532
13383661 66 17699577944706895654
13533116 47 18411983559301191273
13751561 76 18114194046227116323
13782708 43 17095238151520453957
14910700 183 18268429229451140333
15264996 44 18338812134383711326
15392192 104 18189344640010174137
15448158 91 18192705657630001055
15484559 13 16734409277392004164
16990366 60 18044647595535912850
1768 124 18335137631142851771
17852330 53 17916607353731326371
19301679 30 18260829272410460125
1979834 28 18408598180379708504
21130935 74 18334574655688912089
21133410 38 17987213668928479230
21792965 131 17836349816405103975
21792965 2 18043258040719687619
22864921 267 18339371764859532441
24204213 200 18201451306609827623
27425 322 9943802279370872497
3383291 50 17168140191947488153
3886686 26 17480026289512737137
4144715 1 18049716321931945476
4408954 64 16199031570738547466
4435113 14 18187367580189862153
4461854 278 18411973685825875690
50009960 94 17388511874958813170
6176135 31 18342168986043028419
86090 222 17967818210536056146
9831232 110 18263360300653054023

> <PUBCHEM_SHAPE_MULTIPOLES>
723.39
22.49
6.43
1.87
58.88
6.91
0.2
5.93
10.37
-14.66
-2.84
-0.97
0.1
2.08

> <PUBCHEM_SHAPE_SELFOVERLAP>
1592.967

> <PUBCHEM_SHAPE_VOLUME>
390.7

> <PUBCHEM_COORDINATE_TYPE>
2
5
10

$$$$
