51137546
  -OEChem-12032416243D

 57 61  0     1  0  0  0  0  0999 V2000
    1.9769   -1.0719    0.2983 O   0  0  0  0  0  0  0  0  0  0  0  0
   -2.0328   -0.5100    0.0472 N   0  0  1  0  0  0  0  0  0  0  0  0
   -5.6220    2.1092    0.5753 N   0  0  0  0  0  0  0  0  0  0  0  0
    1.8891   -3.3071    0.3193 N   0  0  0  0  0  0  0  0  0  0  0  0
    3.2106   -2.9330    0.1624 N   0  0  0  0  0  0  0  0  0  0  0  0
    7.4810    2.0225   -0.3613 N   0  0  0  0  0  0  0  0  0  0  0  0
   -0.2812   -1.9798    0.5676 C   0  0  2  0  0  0  0  0  0  0  0  0
   -0.9160   -1.2058   -0.5956 C   0  0  0  0  0  0  0  0  0  0  0  0
   -0.6804   -1.1890    1.8256 C   0  0  0  0  0  0  0  0  0  0  0  0
   -1.4876   -0.0058    1.3076 C   0  0  0  0  0  0  0  0  0  0  0  0
   -2.5782    0.5522   -0.7850 C   0  0  0  0  0  0  0  0  0  0  0  0
    1.2055   -2.1892    0.3943 C   0  0  0  0  0  0  0  0  0  0  0  0
   -3.9570    0.9614   -0.3398 C   0  0  0  0  0  0  0  0  0  0  0  0
   -5.1673    0.2494   -0.5700 C   0  0  0  0  0  0  0  0  0  0  0  0
   -4.2689    2.1001    0.3665 C   0  0  0  0  0  0  0  0  0  0  0  0
   -6.1965    0.9909    0.0143 C   0  0  0  0  0  0  0  0  0  0  0  0
   -5.4871   -0.9585   -1.2212 C   0  0  0  0  0  0  0  0  0  0  0  0
    3.2143   -1.6205    0.1556 C   0  0  0  0  0  0  0  0  0  0  0  0
   -7.5348    0.5833   -0.0203 C   0  0  0  0  0  0  0  0  0  0  0  0
   -6.3305    3.1520    1.2854 C   0  0  0  0  0  0  0  0  0  0  0  0
   -6.8215   -1.3788   -1.2637 C   0  0  0  0  0  0  0  0  0  0  0  0
   -7.8279   -0.6182   -0.6719 C   0  0  0  0  0  0  0  0  0  0  0  0
    4.3004   -0.6932    0.0239 C   0  0  0  0  0  0  0  0  0  0  0  0
    5.6050   -1.1636   -0.1264 C   0  0  0  0  0  0  0  0  0  0  0  0
    4.0521    0.6793    0.0458 C   0  0  0  0  0  0  0  0  0  0  0  0
    6.4128    1.1108   -0.2327 C   0  0  0  0  0  0  0  0  0  0  0  0
    6.6611   -0.2617   -0.2547 C   0  0  0  0  0  0  0  0  0  0  0  0
    5.1082    1.5812   -0.0825 C   0  0  0  0  0  0  0  0  0  0  0  0
    8.8401    1.5436   -0.5168 C   0  0  0  0  0  0  0  0  0  0  0  0
    7.2329    3.4506   -0.3474 C   0  0  0  0  0  0  0  0  0  0  0  0
   -0.7477   -2.9728    0.6312 H   0  0  0  0  0  0  0  0  0  0  0  0
   -0.2081   -0.4963   -1.0439 H   0  0  0  0  0  0  0  0  0  0  0  0
   -1.2619   -1.8860   -1.3816 H   0  0  0  0  0  0  0  0  0  0  0  0
   -1.3088   -1.8204    2.4663 H   0  0  0  0  0  0  0  0  0  0  0  0
    0.1753   -0.8578    2.4234 H   0  0  0  0  0  0  0  0  0  0  0  0
   -2.2680    0.2800    2.0199 H   0  0  0  0  0  0  0  0  0  0  0  0
   -0.8221    0.8532    1.1524 H   0  0  0  0  0  0  0  0  0  0  0  0
   -1.9126    1.4246   -0.8283 H   0  0  0  0  0  0  0  0  0  0  0  0
   -2.6728    0.1970   -1.8207 H   0  0  0  0  0  0  0  0  0  0  0  0
   -3.6390    2.8990    0.7351 H   0  0  0  0  0  0  0  0  0  0  0  0
   -4.7147   -1.5636   -1.6873 H   0  0  0  0  0  0  0  0  0  0  0  0
   -8.3230    1.1707    0.4384 H   0  0  0  0  0  0  0  0  0  0  0  0
   -7.0602    3.5981    0.6050 H   0  0  0  0  0  0  0  0  0  0  0  0
   -6.8282    2.7040    2.1493 H   0  0  0  0  0  0  0  0  0  0  0  0
   -5.6229    3.9146    1.6207 H   0  0  0  0  0  0  0  0  0  0  0  0
   -7.0740   -2.3097   -1.7645 H   0  0  0  0  0  0  0  0  0  0  0  0
   -8.8577   -0.9635   -0.7168 H   0  0  0  0  0  0  0  0  0  0  0  0
    5.8211   -2.2292   -0.1462 H   0  0  0  0  0  0  0  0  0  0  0  0
    3.0493    1.0832    0.1610 H   0  0  0  0  0  0  0  0  0  0  0  0
    7.6573   -0.6774   -0.3693 H   0  0  0  0  0  0  0  0  0  0  0  0
    4.8637    2.6386   -0.0591 H   0  0  0  0  0  0  0  0  0  0  0  0
    9.1526    0.9505    0.3500 H   0  0  0  0  0  0  0  0  0  0  0  0
    8.9474    0.9461   -1.4290 H   0  0  0  0  0  0  0  0  0  0  0  0
    9.5538    2.3708   -0.6008 H   0  0  0  0  0  0  0  0  0  0  0  0
    6.5812    3.7473   -1.1768 H   0  0  0  0  0  0  0  0  0  0  0  0
    6.7859    3.7655    0.6021 H   0  0  0  0  0  0  0  0  0  0  0  0
    8.1600    4.0237   -0.4598 H   0  0  0  0  0  0  0  0  0  0  0  0
  1 12  1  0  0  0  0
  1 18  1  0  0  0  0
  2  8  1  0  0  0  0
  2 10  1  0  0  0  0
  2 11  1  0  0  0  0
  3 15  1  0  0  0  0
  3 16  1  0  0  0  0
  3 20  1  0  0  0  0
  4  5  1  0  0  0  0
  4 12  2  0  0  0  0
  5 18  2  0  0  0  0
  6 26  1  0  0  0  0
  6 29  1  0  0  0  0
  6 30  1  0  0  0  0
  7  8  1  0  0  0  0
  7  9  1  0  0  0  0
  7 12  1  0  0  0  0
  7 31  1  0  0  0  0
  8 32  1  0  0  0  0
  8 33  1  0  0  0  0
  9 10  1  0  0  0  0
  9 34  1  0  0  0  0
  9 35  1  0  0  0  0
 10 36  1  0  0  0  0
 10 37  1  0  0  0  0
 11 13  1  0  0  0  0
 11 38  1  0  0  0  0
 11 39  1  0  0  0  0
 13 14  1  0  0  0  0
 13 15  2  0  0  0  0
 14 16  1  0  0  0  0
 14 17  2  0  0  0  0
 15 40  1  0  0  0  0
 16 19  2  0  0  0  0
 17 21  1  0  0  0  0
 17 41  1  0  0  0  0
 18 23  1  0  0  0  0
 19 22  1  0  0  0  0
 19 42  1  0  0  0  0
 20 43  1  0  0  0  0
 20 44  1  0  0  0  0
 20 45  1  0  0  0  0
 21 22  2  0  0  0  0
 21 46  1  0  0  0  0
 22 47  1  0  0  0  0
 23 24  2  0  0  0  0
 23 25  1  0  0  0  0
 24 27  1  0  0  0  0
 24 48  1  0  0  0  0
 25 28  2  0  0  0  0
 25 49  1  0  0  0  0
 26 27  2  0  0  0  0
 26 28  1  0  0  0  0
 27 50  1  0  0  0  0
 28 51  1  0  0  0  0
 29 52  1  0  0  0  0
 29 53  1  0  0  0  0
 29 54  1  0  0  0  0
 30 55  1  0  0  0  0
 30 56  1  0  0  0  0
 30 57  1  0  0  0  0
M  END
> <PUBCHEM_COMPOUND_CID>
51137546

> <PUBCHEM_CONFORMER_RMSD>
0.8

> <PUBCHEM_CONFORMER_DIVERSEORDER>
1
44
55
188
130
35
199
158
187
67
175
45
201
119
99
200
60
144
47
197
184
17
138
8
225
185
110
177
192
151
121
26
41
172
2
46
164
33
169
109
186
114
92
10
116
157
167
189
214
139
123
120
213
135
53
51
32
154
4
171
15
105
218
71
57
14
198
84
128
222
181
132
206
25
204
140
78
124
146
34
211
173
118
148
24
196
178
161
91
141
170
22
143
27
101
88
131
125
30
226
23
149
54
137
193
104
94
229
48
85
64
195
65
183
179
108
81
227
5
56
113
9
182
3
210
31
203
160
159
87
36
52
38
115
205
73
86
191
163
112
89
129
39
180
19
134
117
11
43
103
127
133
219
207
28
208
42
202
93
209
59
40
69
215
16
90
122
162
228
102
142
168
29
37
106
98
18
212
216
83
82
107
72
50
156
126
97
79
224
21
136
95
217
13
6
153
100
12
174
96
145
176
70
20
49
63
74
220
223
111
76
147
194
66
75
61
190
150
221
166
152
68
165
80
62
58
7
155
77

> <PUBCHEM_MMFF94_PARTIAL_CHARGES>
37
1 -0.28
10 0.27
11 0.45
12 0.3
13 -0.18
15 -0.3
16 -0.15
17 -0.15
18 0.43
19 -0.15
2 -0.81
20 0.26
21 -0.15
22 -0.15
23 0.05
24 -0.15
25 -0.15
26 0.1
27 -0.15
28 -0.15
29 0.37
3 0.05
30 0.37
4 -0.34
40 0.15
41 0.15
42 0.15
46 0.15
47 0.15
48 0.15
49 0.15
5 -0.34
50 0.15
51 0.15
6 -0.84
7 0.18
8 0.27

> <PUBCHEM_EFFECTIVE_ROTOR_COUNT>
6

> <PUBCHEM_PHARMACOPHORE_FEATURES>
8
1 2 cation
1 3 cation
1 6 cation
5 1 4 5 12 18 rings
5 2 7 8 9 10 rings
5 3 13 14 15 16 rings
6 14 16 17 19 21 22 rings
6 23 24 25 26 27 28 rings

> <PUBCHEM_HEAVY_ATOM_COUNT>
30

> <PUBCHEM_ATOM_DEF_STEREO_COUNT>
1

> <PUBCHEM_ATOM_UDEF_STEREO_COUNT>
0

> <PUBCHEM_BOND_DEF_STEREO_COUNT>
0

> <PUBCHEM_BOND_UDEF_STEREO_COUNT>
0

> <PUBCHEM_ISOTOPIC_ATOM_COUNT>
0

> <PUBCHEM_COMPONENT_COUNT>
1

> <PUBCHEM_CACTVS_TAUTO_COUNT>
1

> <PUBCHEM_CONFORMER_ID>
030C4C0A00000001

> <PUBCHEM_MMFF94_ENERGY>
74.9568

> <PUBCHEM_FEATURE_SELFOVERLAP>
40.691

> <PUBCHEM_SHAPE_FINGERPRINT>
10 15 17458061577889805292
10411042 1 17832140521302889186
10595046 47 18341046325079038147
10674148 151 12967134908139838958
10930396 42 15792002437322186524
11273773 42 18412544331563612861
11297010 23 18272943722333704150
11315181 36 18411135823974497821
11374522 155 18041848422897783588
11476731 38 18410291433393626463
12760667 363 10807937067657449191
12821665 9 18411418432347918247
12925494 130 18118685654886193856
13248334 5 18192430771677148914
13673619 4 12319741358325808226
13690498 29 17631439241711508991
14040221 310 17986381402845306431
14150023 79 18187645765802814786
14257110 125 18409446999166482990
14394314 77 18339930316266613969
14849402 71 18410576214535721377
14856354 85 16988841701334839367
14931854 50 17988936578522685912
15064981 194 18044667639989514254
15152005 290 18337673131206452388
15183329 4 18059857263750479009
15289351 153 18410007733423142944
15301273 46 13334733493199693906
15320295 44 18198905821025993681
15685185 35 18191587656384215196
1577012 14 18413107229924802128
16126227 98 18410856602742599334
16989713 51 16844994837014238319
16992752 21 18130219472153873007
16994733 274 18409727327208019793
18643901 69 12319466501893304216
19438510 23 18113900485755312168
20105231 36 14907900505284421591
20691028 202 18264772237420110412
21033648 29 16660924362372815631
21298829 104 18409735062613132252
21307412 95 13110954332214976373
21585482 111 18262519174100407820
21585482 57 18262231247891855597
23522609 53 17845386461892238209
24771293 8 18187368718108639869
2748736 6 18408321108013521064
2838139 119 18260827051700858246
335352 9 18408608038221326342
34797466 226 18201723912251692439
3986486 107 18129680642752571444
4073 2 18334017190076743291
4325135 7 18412822469978650735
445580 167 18411693305622135903
5080951 261 16515696567814831507
5219985 9 10807940371041473762
5265222 85 17989201573356772447
54039377 194 10015596008688747904
543368 44 18408885118960644077
5470011 282 14907902713203851776
5718773 13 9799692580652831108
57303763 176 18057614162474773648
5758199 1 18334858315954442223
59682541 35 17676493856556853089
6057620 51 18412257351182919111
6673363 416 18200879577241917457

> <PUBCHEM_SHAPE_MULTIPOLES>
586.61
26.8
3.3
1.07
10.29
0.7
0.21
18.28
-6.3
2.61
0.57
-1.3
-0.07
-2.72

> <PUBCHEM_SHAPE_SELFOVERLAP>
1286.525

> <PUBCHEM_SHAPE_VOLUME>
322.9

> <PUBCHEM_COORDINATE_TYPE>
2
5
10

$$$$
