11886249
  -OEChem-12032416373D

 54 59  0     1  0  0  0  0  0999 V2000
    2.3697    3.0536    0.3773 O   0  0  0  0  0  0  0  0  0  0  0  0
    2.2043    0.7885   -1.7641 O   0  0  0  0  0  0  0  0  0  0  0  0
   -2.3549    0.7376   -0.3361 O   0  0  0  0  0  0  0  0  0  0  0  0
    6.8780    1.1168   -0.9763 O   0  0  0  0  0  0  0  0  0  0  0  0
   -0.3464    1.2601    0.8126 N   0  0  0  0  0  0  0  0  0  0  0  0
    4.8184    0.3742   -0.2114 N   0  0  0  0  0  0  0  0  0  0  0  0
    0.1003    1.2422    2.0720 N   0  0  0  0  0  0  0  0  0  0  0  0
   -2.0150    0.5433    1.9845 N   0  0  0  0  0  0  0  0  0  0  0  0
   -0.9274    0.8020    2.7878 N   0  0  0  0  0  0  0  0  0  0  0  0
   -7.5971   -1.0346   -0.3056 N   0  0  0  0  0  0  0  0  0  0  0  0
   -7.9117   -2.3353   -0.4439 N   0  0  0  0  0  0  0  0  0  0  0  0
   -9.7869   -1.0471   -0.2063 N   0  0  0  0  0  0  0  0  0  0  0  0
    1.7886    0.8736   -0.3875 C   0  0  1  0  0  0  0  0  0  0  0  0
    2.8355    1.6943    0.3397 C   0  0  1  0  0  0  0  0  0  0  0  0
    0.5186    1.6966   -0.2862 C   0  0  2  0  0  0  0  0  0  0  0  0
    4.0689    1.5873   -0.5307 C   0  0  2  0  0  0  0  0  0  0  0  0
    1.0458    3.1230   -0.1707 C   0  0  0  0  0  0  0  0  0  0  0  0
    3.4609    1.4641   -1.9180 C   0  0  0  0  0  0  0  0  0  0  0  0
   -1.6307    0.8355    0.7633 C   0  0  0  0  0  0  0  0  0  0  0  0
    6.1765    0.2467   -0.4672 C   0  0  0  0  0  0  0  0  0  0  0  0
    6.7864   -1.0596   -0.1084 C   0  0  0  0  0  0  0  0  0  0  0  0
    7.9042   -1.4840   -0.7966 C   0  0  0  0  0  0  0  0  0  0  0  0
    6.2159   -1.8062    0.9015 C   0  0  0  0  0  0  0  0  0  0  0  0
   -3.6698    0.2929   -0.3281 C   0  0  0  0  0  0  0  0  0  0  0  0
    8.4770   -2.7104   -0.4597 C   0  0  0  0  0  0  0  0  0  0  0  0
    6.7890   -3.0325    1.2384 C   0  0  0  0  0  0  0  0  0  0  0  0
   -4.6881    1.2138   -0.1731 C   0  0  0  0  0  0  0  0  0  0  0  0
   -3.9219   -1.0574   -0.4760 C   0  0  0  0  0  0  0  0  0  0  0  0
    7.9195   -3.4845    0.5577 C   0  0  0  0  0  0  0  0  0  0  0  0
   -6.0095    0.7671   -0.1653 C   0  0  0  0  0  0  0  0  0  0  0  0
   -5.2435   -1.5040   -0.4683 C   0  0  0  0  0  0  0  0  0  0  0  0
   -6.2871   -0.5917   -0.3129 C   0  0  0  0  0  0  0  0  0  0  0  0
   -8.7239   -0.2778   -0.1651 C   0  0  0  0  0  0  0  0  0  0  0  0
   -9.2439   -2.2882   -0.3773 C   0  0  0  0  0  0  0  0  0  0  0  0
    1.7019   -0.1503   -0.0100 H   0  0  0  0  0  0  0  0  0  0  0  0
    2.9923    1.3716    1.3739 H   0  0  0  0  0  0  0  0  0  0  0  0
   -0.0899    1.6134   -1.1946 H   0  0  0  0  0  0  0  0  0  0  0  0
    4.7356    2.4530   -0.4654 H   0  0  0  0  0  0  0  0  0  0  0  0
    1.1309    3.5855   -1.1602 H   0  0  0  0  0  0  0  0  0  0  0  0
    0.4270    3.7700    0.4585 H   0  0  0  0  0  0  0  0  0  0  0  0
    4.0832    0.9122   -2.6291 H   0  0  0  0  0  0  0  0  0  0  0  0
    3.2493    2.4525   -2.3408 H   0  0  0  0  0  0  0  0  0  0  0  0
    4.2803   -0.4251    0.1064 H   0  0  0  0  0  0  0  0  0  0  0  0
    8.3474   -0.8958   -1.5944 H   0  0  0  0  0  0  0  0  0  0  0  0
    5.3582   -1.4747    1.4775 H   0  0  0  0  0  0  0  0  0  0  0  0
    9.3568   -3.0630   -0.9900 H   0  0  0  0  0  0  0  0  0  0  0  0
    6.3600   -3.6322    2.0359 H   0  0  0  0  0  0  0  0  0  0  0  0
   -4.4731    2.2721   -0.0591 H   0  0  0  0  0  0  0  0  0  0  0  0
   -3.1106   -1.7687   -0.5980 H   0  0  0  0  0  0  0  0  0  0  0  0
    8.3666   -4.4386    0.8212 H   0  0  0  0  0  0  0  0  0  0  0  0
   -6.7806    1.5202   -0.0415 H   0  0  0  0  0  0  0  0  0  0  0  0
   -5.4177   -2.5704   -0.5864 H   0  0  0  0  0  0  0  0  0  0  0  0
   -8.7511    0.7950   -0.0378 H   0  0  0  0  0  0  0  0  0  0  0  0
   -9.8375   -3.1867   -0.4555 H   0  0  0  0  0  0  0  0  0  0  0  0
  1 14  1  0  0  0  0
  1 17  1  0  0  0  0
  2 13  1  0  0  0  0
  2 18  1  0  0  0  0
  3 19  1  0  0  0  0
  3 24  1  0  0  0  0
  4 20  2  0  0  0  0
  5  7  1  0  0  0  0
  5 15  1  0  0  0  0
  5 19  1  0  0  0  0
  6 16  1  0  0  0  0
  6 20  1  0  0  0  0
  6 43  1  0  0  0  0
  7  9  2  0  0  0  0
  8  9  1  0  0  0  0
  8 19  2  0  0  0  0
 10 11  1  0  0  0  0
 10 32  1  0  0  0  0
 10 33  1  0  0  0  0
 11 34  2  0  0  0  0
 12 33  2  0  0  0  0
 12 34  1  0  0  0  0
 13 14  1  0  0  0  0
 13 15  1  0  0  0  0
 13 35  1  0  0  0  0
 14 16  1  0  0  0  0
 14 36  1  0  0  0  0
 15 17  1  0  0  0  0
 15 37  1  0  0  0  0
 16 18  1  0  0  0  0
 16 38  1  0  0  0  0
 17 39  1  0  0  0  0
 17 40  1  0  0  0  0
 18 41  1  0  0  0  0
 18 42  1  0  0  0  0
 20 21  1  0  0  0  0
 21 22  2  0  0  0  0
 21 23  1  0  0  0  0
 22 25  1  0  0  0  0
 22 44  1  0  0  0  0
 23 26  2  0  0  0  0
 23 45  1  0  0  0  0
 24 27  2  0  0  0  0
 24 28  1  0  0  0  0
 25 29  2  0  0  0  0
 25 46  1  0  0  0  0
 26 29  1  0  0  0  0
 26 47  1  0  0  0  0
 27 30  1  0  0  0  0
 27 48  1  0  0  0  0
 28 31  2  0  0  0  0
 28 49  1  0  0  0  0
 29 50  1  0  0  0  0
 30 32  2  0  0  0  0
 30 51  1  0  0  0  0
 31 32  1  0  0  0  0
 31 52  1  0  0  0  0
 33 53  1  0  0  0  0
 34 54  1  0  0  0  0
M  END
> <PUBCHEM_COMPOUND_CID>
11886249

> <PUBCHEM_CONFORMER_RMSD>
1

> <PUBCHEM_CONFORMER_DIVERSEORDER>
1
208
198
170
49
63
45
91
205
211
157
135
9
126
79
178
148
13
106
95
191
24
37
179
57
4
93
124
207
156
74
166
94
164
161
72
99
66
58
177
195
60
155
137
112
186
202
174
36
48
189
83
196
167
87
141
67
29
110
104
190
143
92
200
38
201
51
210
152
197
171
10
118
162
56
47
30
193
125
134
55
117
163
169
71
96
41
11
153
50
187
81
19
27
25
120
119
3
175
101
21
188
194
15
154
150
17
14
185
53
65
68
111
206
22
192
8
42
129
84
18
28
160
109
105
140
122
147
39
173
35
26
139
145
121
181
7
204
115
31
89
23
88
97
158
183
203
33
146
54
69
82
34
142
184
100
151
180
168
136
107
75
98
113
127
144
102
6
182
199
80
2
20
108
209
59
86
159
133
5
149
176
32
123
77
16
131
62
165
85
61
172
132
138
52
40
73
103
116
90
43
44
12
64
130
78
70
46
76
128
114

> <PUBCHEM_MMFF94_PARTIAL_CHARGES>
45
1 -0.56
10 0.59
11 -0.71
12 -0.57
13 0.28
14 0.28
15 0.26
16 0.3
17 0.28
18 0.28
19 0.25
2 -0.56
20 0.54
21 0.09
22 -0.15
23 -0.15
24 0.08
25 -0.15
26 -0.15
27 -0.15
28 -0.15
29 -0.15
3 -0.15
30 -0.15
31 -0.15
32 -0.02
33 0.04
34 0.37
4 -0.57
43 0.37
44 0.15
45 0.15
46 0.15
47 0.15
48 0.15
49 0.15
5 0.31
50 0.15
51 0.15
52 0.15
53 0.15
54 0.15
6 -0.73
7 -0.42
8 -0.34

> <PUBCHEM_EFFECTIVE_ROTOR_COUNT>
8.2

> <PUBCHEM_PHARMACOPHORE_FEATURES>
13
1 1 acceptor
1 2 acceptor
1 4 acceptor
1 6 donor
3 10 12 33 cation
3 11 12 34 cation
3 5 8 19 cation
5 1 13 14 15 17 rings
5 10 11 12 33 34 rings
5 2 13 14 16 18 rings
5 5 7 8 9 19 rings
6 21 22 23 25 26 29 rings
6 24 27 28 30 31 32 rings

> <PUBCHEM_HEAVY_ATOM_COUNT>
34

> <PUBCHEM_ATOM_DEF_STEREO_COUNT>
4

> <PUBCHEM_ATOM_UDEF_STEREO_COUNT>
0

> <PUBCHEM_BOND_DEF_STEREO_COUNT>
0

> <PUBCHEM_BOND_UDEF_STEREO_COUNT>
0

> <PUBCHEM_ISOTOPIC_ATOM_COUNT>
0

> <PUBCHEM_COMPONENT_COUNT>
1

> <PUBCHEM_CACTVS_TAUTO_COUNT>
2

> <PUBCHEM_CONFORMER_ID>
00B55EA900000001

> <PUBCHEM_MMFF94_ENERGY>
90.292

> <PUBCHEM_FEATURE_SELFOVERLAP>
69.408

> <PUBCHEM_SHAPE_FINGERPRINT>
10 15 15195274310681158024
10066227 49 18334856112879169695
10258705 36 18042697281067874955
10904742 90 8358252648921347850
10930396 42 14549014365017572563
11135609 201 9727631679220689698
11146346 178 18267868290285465319
11386260 185 16733271239311159436
11456790 92 17417821677591872235
12592606 108 18408885122527864543
12758862 56 17131835417446491787
12838862 33 15554445168351355749
12838863 1 18188485762843080978
13150687 139 17022621983726220523
13248334 5 18121499317753080228
14068700 675 18336828585832912008
14202775 3 18262521516018107203
14537116 161 13262397761380042422
14617042 71 10087632719825873914
15131766 46 8862643687232395018
15183329 4 18040996258799710081
15188451 53 17989489598242439920
15198563 99 16153703176626111572
15219723 13 18335145311679371875
15320294 125 17775563156384736100
15347590 135 15051734157995976750
16994733 274 9222937167817427870
18393751 57 12247678262213396580
19301676 85 18114467764894486522
19301679 30 18129667387981919980
19304671 126 15430326879548175700
19841028 212 18410008837019254658
20028762 73 18341050702147156798
20105231 36 18187089507951259547
2026 5 18412543193772533759
20505436 4 11241969308397670169
20691028 202 9222644697983369550
21792934 111 15482675676155508161
22224240 67 12175625074938508605
23528940 14 18192144903713714218
23569943 247 18261954033765698835
23576562 1 14707788332451617943
3383291 50 16988567931313550647
3711267 37 10737285706079386423
3918712 181 8358253744333927982
3986486 107 16153425009291273238
406291 66 18412260606441231294
4258327 124 11025800894850304689
439807 62 18411138052034032191
474113 269 18412827958482709118
4760202 70 18337685170369113612
54039377 194 18411699872759409027
54076057 255 11169915000594506726
5718773 13 18411418389139542164
6438161 24 18411978078680009867
96874 4 18411413978430246798
9689198 14 8286195072327163080

> <PUBCHEM_SHAPE_MULTIPOLES>
636.38
31.49
3.34
1.41
25.31
1.08
0.7
34.21
-5.9
-5.33
0.2
-0.87
-0.39
-2.34

> <PUBCHEM_SHAPE_SELFOVERLAP>
1414.699

> <PUBCHEM_SHAPE_VOLUME>
340.3

> <PUBCHEM_COORDINATE_TYPE>
2
5
10

$$$$
