11911856
  -OEChem-12032416383D

 67 72  0     1  0  0  0  0  0999 V2000
    3.5906    3.0146   -1.1671 S   0  0  0  0  0  0  0  0  0  0  0  0
   -0.2944    2.0832    1.4243 O   0  0  0  0  0  0  0  0  0  0  0  0
    2.1374    0.2915    2.2253 O   0  0  0  0  0  0  0  0  0  0  0  0
    4.4959    3.8002   -0.3502 O   0  0  0  0  0  0  0  0  0  0  0  0
    3.3652    3.3701   -2.5550 O   0  0  0  0  0  0  0  0  0  0  0  0
    2.0893    2.8872   -0.3845 N   0  0  0  0  0  0  0  0  0  0  0  0
   -0.1246   -1.5570    1.2138 N   0  0  0  0  0  0  0  0  0  0  0  0
   -2.3338   -1.3095    0.4624 N   0  0  0  0  0  0  0  0  0  0  0  0
   -1.0497   -3.2711   -0.0949 N   0  0  0  0  0  0  0  0  0  0  0  0
   -8.0246    1.3545   -0.3748 N   0  0  0  0  0  0  0  0  0  0  0  0
    1.7221    0.8972    0.9898 C   0  0  1  0  0  0  0  0  0  0  0  0
    0.2084    0.8271    0.9391 C   0  0  1  0  0  0  0  0  0  0  0  0
    2.0233    2.3761    1.0064 C   0  0  2  0  0  0  0  0  0  0  0  0
   -0.1434   -0.2838    1.9003 C   0  0  2  0  0  0  0  0  0  0  0  0
    0.8090    2.9572    1.7042 C   0  0  0  0  0  0  0  0  0  0  0  0
    0.9848   -0.2167    2.9130 C   0  0  0  0  0  0  0  0  0  0  0  0
   -1.2014   -2.0608    0.5059 C   0  0  0  0  0  0  0  0  0  0  0  0
    4.1549    1.3394   -1.1493 C   0  0  0  0  0  0  0  0  0  0  0  0
    4.9092    0.8918   -0.0783 C   0  0  0  0  0  0  0  0  0  0  0  0
    3.8327    0.5089   -2.2045 C   0  0  0  0  0  0  0  0  0  0  0  0
    5.3656   -0.4361   -0.0495 C   0  0  0  0  0  0  0  0  0  0  0  0
   -3.3636   -1.8308   -0.2360 C   0  0  0  0  0  0  0  0  0  0  0  0
    4.2774   -0.8135   -2.1923 C   0  0  0  0  0  0  0  0  0  0  0  0
    5.0448   -1.3016   -1.1222 C   0  0  0  0  0  0  0  0  0  0  0  0
   -2.1190   -3.7322   -0.7763 C   0  0  0  0  0  0  0  0  0  0  0  0
   -3.3132   -3.0491   -0.8822 C   0  0  0  0  0  0  0  0  0  0  0  0
   -4.5551   -1.0169   -0.2703 C   0  0  0  0  0  0  0  0  0  0  0  0
    6.1328   -0.9241    1.0209 C   0  0  0  0  0  0  0  0  0  0  0  0
    5.5014   -2.6295   -1.0934 C   0  0  0  0  0  0  0  0  0  0  0  0
    6.5779   -2.2462    1.0331 C   0  0  0  0  0  0  0  0  0  0  0  0
    6.2629   -3.0972   -0.0221 C   0  0  0  0  0  0  0  0  0  0  0  0
   -5.8118   -1.6175   -0.3746 C   0  0  0  0  0  0  0  0  0  0  0  0
   -4.4556    0.3744   -0.2012 C   0  0  0  0  0  0  0  0  0  0  0  0
   -6.9629   -0.8305   -0.4096 C   0  0  0  0  0  0  0  0  0  0  0  0
   -5.6067    1.1613   -0.2361 C   0  0  0  0  0  0  0  0  0  0  0  0
   -6.8604    0.5589   -0.3403 C   0  0  0  0  0  0  0  0  0  0  0  0
   -8.0651    2.6261    0.3194 C   0  0  0  0  0  0  0  0  0  0  0  0
   -9.2001    0.9043   -1.0932 C   0  0  0  0  0  0  0  0  0  0  0  0
    2.1614    0.3143    0.1816 H   0  0  0  0  0  0  0  0  0  0  0  0
   -0.1768    0.6958   -0.0773 H   0  0  0  0  0  0  0  0  0  0  0  0
    2.9324    2.6437    1.5531 H   0  0  0  0  0  0  0  0  0  0  0  0
   -1.0989   -0.1352    2.4164 H   0  0  0  0  0  0  0  0  0  0  0  0
    0.5569    3.9719    1.3812 H   0  0  0  0  0  0  0  0  0  0  0  0
    0.9486    2.9655    2.7907 H   0  0  0  0  0  0  0  0  0  0  0  0
    0.7485    0.4917    3.7148 H   0  0  0  0  0  0  0  0  0  0  0  0
    1.2314   -1.1804    3.3692 H   0  0  0  0  0  0  0  0  0  0  0  0
    1.2394    2.7784   -0.9519 H   0  0  0  0  0  0  0  0  0  0  0  0
    0.7312   -2.1000    1.1947 H   0  0  0  0  0  0  0  0  0  0  0  0
    5.1515    1.5571    0.7470 H   0  0  0  0  0  0  0  0  0  0  0  0
    3.2341    0.8513   -3.0429 H   0  0  0  0  0  0  0  0  0  0  0  0
    4.0171   -1.4618   -3.0265 H   0  0  0  0  0  0  0  0  0  0  0  0
   -1.9824   -4.6957   -1.2556 H   0  0  0  0  0  0  0  0  0  0  0  0
   -4.1237   -3.4673   -1.4651 H   0  0  0  0  0  0  0  0  0  0  0  0
    6.3905   -0.2769    1.8567 H   0  0  0  0  0  0  0  0  0  0  0  0
    5.2669   -3.3124   -1.9072 H   0  0  0  0  0  0  0  0  0  0  0  0
    7.1704   -2.6112    1.8669 H   0  0  0  0  0  0  0  0  0  0  0  0
    6.6097   -4.1264   -0.0120 H   0  0  0  0  0  0  0  0  0  0  0  0
   -5.9392   -2.6965   -0.4033 H   0  0  0  0  0  0  0  0  0  0  0  0
   -3.4931    0.8763   -0.1330 H   0  0  0  0  0  0  0  0  0  0  0  0
   -7.9249   -1.3312   -0.4735 H   0  0  0  0  0  0  0  0  0  0  0  0
   -5.4918    2.2407   -0.1944 H   0  0  0  0  0  0  0  0  0  0  0  0
   -7.5625    3.4037   -0.2654 H   0  0  0  0  0  0  0  0  0  0  0  0
   -7.5948    2.5592    1.3070 H   0  0  0  0  0  0  0  0  0  0  0  0
   -9.0977    2.9540    0.4840 H   0  0  0  0  0  0  0  0  0  0  0  0
   -8.9341    0.4522   -2.0554 H   0  0  0  0  0  0  0  0  0  0  0  0
   -9.8722    1.7411   -1.3144 H   0  0  0  0  0  0  0  0  0  0  0  0
   -9.7637    0.1775   -0.4987 H   0  0  0  0  0  0  0  0  0  0  0  0
  1  4  2  0  0  0  0
  1  5  2  0  0  0  0
  1  6  1  0  0  0  0
  1 18  1  0  0  0  0
  2 12  1  0  0  0  0
  2 15  1  0  0  0  0
  3 11  1  0  0  0  0
  3 16  1  0  0  0  0
  6 13  1  0  0  0  0
  6 47  1  0  0  0  0
  7 14  1  0  0  0  0
  7 17  1  0  0  0  0
  7 48  1  0  0  0  0
  8 17  1  0  0  0  0
  8 22  2  0  0  0  0
  9 17  2  0  0  0  0
  9 25  1  0  0  0  0
 10 36  1  0  0  0  0
 10 37  1  0  0  0  0
 10 38  1  0  0  0  0
 11 12  1  0  0  0  0
 11 13  1  0  0  0  0
 11 39  1  0  0  0  0
 12 14  1  0  0  0  0
 12 40  1  0  0  0  0
 13 15  1  0  0  0  0
 13 41  1  0  0  0  0
 14 16  1  0  0  0  0
 14 42  1  0  0  0  0
 15 43  1  0  0  0  0
 15 44  1  0  0  0  0
 16 45  1  0  0  0  0
 16 46  1  0  0  0  0
 18 19  2  0  0  0  0
 18 20  1  0  0  0  0
 19 21  1  0  0  0  0
 19 49  1  0  0  0  0
 20 23  2  0  0  0  0
 20 50  1  0  0  0  0
 21 24  1  0  0  0  0
 21 28  2  0  0  0  0
 22 26  1  0  0  0  0
 22 27  1  0  0  0  0
 23 24  1  0  0  0  0
 23 51  1  0  0  0  0
 24 29  2  0  0  0  0
 25 26  2  0  0  0  0
 25 52  1  0  0  0  0
 26 53  1  0  0  0  0
 27 32  2  0  0  0  0
 27 33  1  0  0  0  0
 28 30  1  0  0  0  0
 28 54  1  0  0  0  0
 29 31  1  0  0  0  0
 29 55  1  0  0  0  0
 30 31  2  0  0  0  0
 30 56  1  0  0  0  0
 31 57  1  0  0  0  0
 32 34  1  0  0  0  0
 32 58  1  0  0  0  0
 33 35  2  0  0  0  0
 33 59  1  0  0  0  0
 34 36  2  0  0  0  0
 34 60  1  0  0  0  0
 35 36  1  0  0  0  0
 35 61  1  0  0  0  0
 37 62  1  0  0  0  0
 37 63  1  0  0  0  0
 37 64  1  0  0  0  0
 38 65  1  0  0  0  0
 38 66  1  0  0  0  0
 38 67  1  0  0  0  0
M  END
> <PUBCHEM_COMPOUND_CID>
11911856

> <PUBCHEM_CONFORMER_RMSD>
1.2

> <PUBCHEM_CONFORMER_DIVERSEORDER>
1
272
31
173
273
99
106
123
118
10
242
37
291
34
113
322
230
500
437
494
396
91
327
294
397
201
110
346
220
159
14
135
205
319
333
41
89
198
295
472
115
293
358
229
59
366
196
328
258
11
233
477
48
414
349
210
390
154
162
364
131
215
324
202
184
345
20
391
502
369
180
232
56
39
399
486
415
38
508
17
79
104
190
234
447
172
495
279
382
441
129
187
281
182
29
355
24
161
360
64
332
33
427
75
88
30
179
431
165
436
8
47
224
117
217
314
185
248
9
177
45
361
259
413
455
35
83
60
408
52
128
257
26
310
374
425
401
160
418
43
216
96
312
2
416
428
28
66
389
155
289
465
388
287
363
74
171
350
130
147
498
97
467
120
376
303
80
245
27
51
309
94
235
422
492
371
23
197
384
306
111
457
331
377
439
338
247
57
421
71
7
395
61
15
87
286
348
484
42
3
263
274
95
253
305
5
36
4
82
460
78
412
6
124
53
107
316
54

> <PUBCHEM_MMFF94_PARTIAL_CHARGES>
50
1 1.45
10 -0.84
11 0.28
12 0.28
13 0.36
14 0.37
15 0.28
16 0.28
17 0.72
18 -0.01
19 -0.15
2 -0.56
20 -0.15
22 0.31
23 -0.15
25 0.16
26 -0.15
28 -0.15
29 -0.15
3 -0.56
30 -0.15
31 -0.15
32 -0.15
33 -0.15
34 -0.15
35 -0.15
36 0.1
37 0.37
38 0.37
4 -0.65
47 0.42
48 0.4
49 0.15
5 -0.65
50 0.15
51 0.15
52 0.15
53 0.15
54 0.15
55 0.15
56 0.15
57 0.15
58 0.15
59 0.15
6 -0.91
60 0.15
61 0.15
7 -0.87
8 -0.62
9 -0.62

> <PUBCHEM_EFFECTIVE_ROTOR_COUNT>
8.2

> <PUBCHEM_PHARMACOPHORE_FEATURES>
15
1 10 cation
1 2 acceptor
1 3 acceptor
1 4 acceptor
1 5 acceptor
1 6 donor
1 7 donor
1 8 acceptor
4 7 8 9 17 cation
5 2 11 12 13 15 rings
5 3 11 12 14 16 rings
6 18 19 20 21 23 24 rings
6 21 24 28 29 30 31 rings
6 27 32 33 34 35 36 rings
6 8 9 17 22 25 26 rings

> <PUBCHEM_HEAVY_ATOM_COUNT>
38

> <PUBCHEM_ATOM_DEF_STEREO_COUNT>
4

> <PUBCHEM_ATOM_UDEF_STEREO_COUNT>
0

> <PUBCHEM_BOND_DEF_STEREO_COUNT>
0

> <PUBCHEM_BOND_UDEF_STEREO_COUNT>
0

> <PUBCHEM_ISOTOPIC_ATOM_COUNT>
0

> <PUBCHEM_COMPONENT_COUNT>
1

> <PUBCHEM_CACTVS_TAUTO_COUNT>
3

> <PUBCHEM_CONFORMER_ID>
00B5C2B000000001

> <PUBCHEM_MMFF94_ENERGY>
119.6115

> <PUBCHEM_FEATURE_SELFOVERLAP>
76.873

> <PUBCHEM_SHAPE_FINGERPRINT>
10258939 38 12247685937378165187
10483366 6 18342461383242411243
10675989 125 18335138730744241400
10842051 180 10519691302622423146
10974685 15 17047107278784714628
11115154 58 18187929444060123352
11135609 201 9654994634614342846
11607047 403 10159698001913153976
11720765 8 18201999958252987304
11828532 37 18338520854465752359
12098696 120 18339921516558242545
12373685 5 15194986302447357775
13636023 51 17274241972942466698
13782708 43 17345190211314534079
13944108 23 18123751955559310101
13947947 73 18409169904571657550
14068700 675 18340771443309695610
14068700 686 10881663690777663371
14117953 113 18272095951028280750
14289585 56 17386286484894015917
14395042 24 18120363264247060042
15001296 14 17677050282350126269
15183329 4 18272097101503787801
15781502 645 16271637910481187034
19309040 13 16735545093887593038
20715895 44 18412268332849961910
21362857 166 17487594533722582447
21458453 9 7925621220439952029
21814621 53 17822583797101243019
21987483 16 10592039163762301173
23559900 14 18059284461643467971
24893992 56 18412545406366103383
3004659 81 18412550937888095150
3459 83 18411424998572107912
38570 142 17967534588718827083
4066623 53 18412823564520746860
4173938 77 17386006234647454389
4394409 98 18341333314293201542
444735 79 8862943848936538669
4918855 1 17313658252847110351
5223283 242 17313387807874137756
57527295 17 18043815510009125394
613672 6 15267071400992093307
6443934 186 9439409025098565806
6523845 18 15140673692194622090

> <PUBCHEM_SHAPE_MULTIPOLES>
737.49
21.95
4.5
1.99
36.54
0.41
-0.3
0.32
7.12
-2.94
0.97
-2.67
0.73
-1.33

> <PUBCHEM_SHAPE_SELFOVERLAP>
1614.997

> <PUBCHEM_SHAPE_VOLUME>
401.9

> <PUBCHEM_COORDINATE_TYPE>
2
5
10

$$$$
