38027630
  -OEChem-12032416243D

 67 68  0     1  0  0  0  0  0999 V2000
    1.5751    3.1029    1.3671 S   0  0  0  0  0  0  0  0  0  0  0  0
   -3.6746   -2.6226    0.2395 O   0  0  0  0  0  0  0  0  0  0  0  0
    1.5484    3.1720    2.8157 O   0  0  0  0  0  0  0  0  0  0  0  0
    2.2543    4.1298    0.6004 O   0  0  0  0  0  0  0  0  0  0  0  0
    0.4994   -4.1206    0.3315 O   0  0  0  0  0  0  0  0  0  0  0  0
    3.9886   -2.0784   -0.1687 O   0  0  0  0  0  0  0  0  0  0  0  0
   -0.0162    2.9311    0.7832 N   0  0  0  0  0  0  0  0  0  0  0  0
   -1.7200   -2.7742    1.4875 N   0  0  0  0  0  0  0  0  0  0  0  0
   -1.0412    1.0026   -1.2684 C   0  0  1  0  0  0  0  0  0  0  0  0
   -1.4931    2.4763   -1.1143 C   0  0  1  0  0  0  0  0  0  0  0  0
   -2.2618    0.0763   -1.3801 C   0  0  0  0  0  0  0  0  0  0  0  0
   -3.1847    0.1779   -0.1510 C   0  0  2  0  0  0  0  0  0  0  0  0
   -0.1316    0.8109   -2.4860 C   0  0  0  0  0  0  0  0  0  0  0  0
   -3.4610    1.6186    0.2281 C   0  0  0  0  0  0  0  0  0  0  0  0
   -2.7025    2.6336   -0.2227 C   0  0  0  0  0  0  0  0  0  0  0  0
   -0.3516    3.3525   -0.5858 C   0  0  0  0  0  0  0  0  0  0  0  0
   -2.6101   -0.6016    1.0370 C   0  0  0  0  0  0  0  0  0  0  0  0
    0.3802   -0.6247   -2.5472 C   0  0  0  0  0  0  0  0  0  0  0  0
   -0.8742    1.1756   -3.7674 C   0  0  0  0  0  0  0  0  0  0  0  0
   -4.6581    1.8712    1.1019 C   0  0  0  0  0  0  0  0  0  0  0  0
   -2.7546   -2.0963    0.8597 C   0  0  0  0  0  0  0  0  0  0  0  0
    2.2955    1.5552    0.9087 C   0  0  0  0  0  0  0  0  0  0  0  0
   -1.6034   -4.2144    1.4837 C   0  0  0  0  0  0  0  0  0  0  0  0
    2.9177    1.4161   -0.3321 C   0  0  0  0  0  0  0  0  0  0  0  0
    2.2419    0.4729    1.7871 C   0  0  0  0  0  0  0  0  0  0  0  0
   -0.7959   -4.7054    0.2959 C   0  0  0  0  0  0  0  0  0  0  0  0
    3.4863    0.1950   -0.6943 C   0  0  0  0  0  0  0  0  0  0  0  0
    2.8104   -0.7483    1.4249 C   0  0  0  0  0  0  0  0  0  0  0  0
    3.4324   -0.8873    0.1841 C   0  0  0  0  0  0  0  0  0  0  0  0
    1.2941   -4.5468   -0.7668 C   0  0  0  0  0  0  0  0  0  0  0  0
    4.6102   -2.1499   -1.4512 C   0  0  0  0  0  0  0  0  0  0  0  0
   -0.4719    0.7012   -0.3814 H   0  0  0  0  0  0  0  0  0  0  0  0
   -1.8069    2.8977   -2.0725 H   0  0  0  0  0  0  0  0  0  0  0  0
   -1.9735   -0.9697   -1.5186 H   0  0  0  0  0  0  0  0  0  0  0  0
   -2.8725    0.3482   -2.2493 H   0  0  0  0  0  0  0  0  0  0  0  0
   -4.1445   -0.2687   -0.4453 H   0  0  0  0  0  0  0  0  0  0  0  0
    0.7429    1.4636   -2.4005 H   0  0  0  0  0  0  0  0  0  0  0  0
   -2.9756    3.6527    0.0449 H   0  0  0  0  0  0  0  0  0  0  0  0
   -0.6630    4.4035   -0.5517 H   0  0  0  0  0  0  0  0  0  0  0  0
    0.5198    3.2941   -1.2426 H   0  0  0  0  0  0  0  0  0  0  0  0
   -3.1518   -0.3668    1.9613 H   0  0  0  0  0  0  0  0  0  0  0  0
   -1.5640   -0.3314    1.2173 H   0  0  0  0  0  0  0  0  0  0  0  0
   -0.3764   -1.3289   -2.9073 H   0  0  0  0  0  0  0  0  0  0  0  0
    0.7374   -0.9703   -1.5721 H   0  0  0  0  0  0  0  0  0  0  0  0
    1.2221   -0.6896   -3.2462 H   0  0  0  0  0  0  0  0  0  0  0  0
   -1.7449    0.5464   -3.9677 H   0  0  0  0  0  0  0  0  0  0  0  0
   -0.1997    1.0228   -4.6201 H   0  0  0  0  0  0  0  0  0  0  0  0
   -1.1706    2.2244   -3.8225 H   0  0  0  0  0  0  0  0  0  0  0  0
   -5.5566    1.4387    0.6498 H   0  0  0  0  0  0  0  0  0  0  0  0
   -4.8457    2.9412    1.2425 H   0  0  0  0  0  0  0  0  0  0  0  0
   -4.5202    1.4307    2.0934 H   0  0  0  0  0  0  0  0  0  0  0  0
   -0.7799    2.9365    1.4701 H   0  0  0  0  0  0  0  0  0  0  0  0
   -1.0005   -2.2499    1.9764 H   0  0  0  0  0  0  0  0  0  0  0  0
   -2.6026   -4.6615    1.4766 H   0  0  0  0  0  0  0  0  0  0  0  0
   -1.1031   -4.4857    2.4192 H   0  0  0  0  0  0  0  0  0  0  0  0
    2.9657    2.2440   -1.0338 H   0  0  0  0  0  0  0  0  0  0  0  0
    1.7553    0.5578    2.7545 H   0  0  0  0  0  0  0  0  0  0  0  0
   -1.2936   -4.4262   -0.6405 H   0  0  0  0  0  0  0  0  0  0  0  0
   -0.7094   -5.7971    0.3379 H   0  0  0  0  0  0  0  0  0  0  0  0
    3.9509    0.1555   -1.6736 H   0  0  0  0  0  0  0  0  0  0  0  0
    2.7629   -1.5889    2.1119 H   0  0  0  0  0  0  0  0  0  0  0  0
    2.2903   -4.1132   -0.6617 H   0  0  0  0  0  0  0  0  0  0  0  0
    0.8586   -4.2000   -1.7089 H   0  0  0  0  0  0  0  0  0  0  0  0
    1.3903   -5.6369   -0.7738 H   0  0  0  0  0  0  0  0  0  0  0  0
    4.9987   -3.1672   -1.5656 H   0  0  0  0  0  0  0  0  0  0  0  0
    5.4663   -1.4705   -1.5223 H   0  0  0  0  0  0  0  0  0  0  0  0
    3.8861   -1.9920   -2.2577 H   0  0  0  0  0  0  0  0  0  0  0  0
  1  3  2  0  0  0  0
  1  4  2  0  0  0  0
  1  7  1  0  0  0  0
  1 22  1  0  0  0  0
  2 21  2  0  0  0  0
  5 26  1  0  0  0  0
  5 30  1  0  0  0  0
  6 29  1  0  0  0  0
  6 31  1  0  0  0  0
  7 16  1  0  0  0  0
  7 52  1  0  0  0  0
  8 21  1  0  0  0  0
  8 23  1  0  0  0  0
  8 53  1  0  0  0  0
  9 10  1  0  0  0  0
  9 11  1  0  0  0  0
  9 13  1  0  0  0  0
  9 32  1  0  0  0  0
 10 15  1  0  0  0  0
 10 16  1  0  0  0  0
 10 33  1  0  0  0  0
 11 12  1  0  0  0  0
 11 34  1  0  0  0  0
 11 35  1  0  0  0  0
 12 14  1  0  0  0  0
 12 17  1  0  0  0  0
 12 36  1  0  0  0  0
 13 18  1  0  0  0  0
 13 19  1  0  0  0  0
 13 37  1  0  0  0  0
 14 15  2  0  0  0  0
 14 20  1  0  0  0  0
 15 38  1  0  0  0  0
 16 39  1  0  0  0  0
 16 40  1  0  0  0  0
 17 21  1  0  0  0  0
 17 41  1  0  0  0  0
 17 42  1  0  0  0  0
 18 43  1  0  0  0  0
 18 44  1  0  0  0  0
 18 45  1  0  0  0  0
 19 46  1  0  0  0  0
 19 47  1  0  0  0  0
 19 48  1  0  0  0  0
 20 49  1  0  0  0  0
 20 50  1  0  0  0  0
 20 51  1  0  0  0  0
 22 24  2  0  0  0  0
 22 25  1  0  0  0  0
 23 26  1  0  0  0  0
 23 54  1  0  0  0  0
 23 55  1  0  0  0  0
 24 27  1  0  0  0  0
 24 56  1  0  0  0  0
 25 28  2  0  0  0  0
 25 57  1  0  0  0  0
 26 58  1  0  0  0  0
 26 59  1  0  0  0  0
 27 29  2  0  0  0  0
 27 60  1  0  0  0  0
 28 29  1  0  0  0  0
 28 61  1  0  0  0  0
 30 62  1  0  0  0  0
 30 63  1  0  0  0  0
 30 64  1  0  0  0  0
 31 65  1  0  0  0  0
 31 66  1  0  0  0  0
 31 67  1  0  0  0  0
M  END
> <PUBCHEM_COMPOUND_CID>
38027630

> <PUBCHEM_CONFORMER_RMSD>
1.2

> <PUBCHEM_CONFORMER_DIVERSEORDER>
2
136
65
151
159
154
133
88
128
137
91
36
112
163
73
123
97
51
56
79
121
55
87
47
63
147
70
114
85
122
140
150
160
50
138
113
8
115
125
153
43
83
95
34
127
155
158
144
99
148
66
80
116
68
141
101
93
94
162
58
39
75
54
103
69
124
12
149
90
146
23
89
19
152
59
78
102
134
27
57
32
129
44
72
25
76
42
157
37
64
135
110
7
117
24
139
30
143
120
61
9
18
82
161
41
52
48
35
142
15
22
100
60
31
156
126
111
13
16
49
105
132
98
67
107
145
46
119
28
14
96
6
104
21
17
81
84
62
5
33
40
106
108
1
92
86
4
20
109
131
38
29
53
74
130
71
77
3
11
45
118
10
26

> <PUBCHEM_MMFF94_PARTIAL_CHARGES>
33
1 1.45
10 0.14
12 0.14
14 -0.28
15 -0.29
16 0.36
17 0.06
2 -0.57
20 0.14
21 0.57
22 -0.01
23 0.3
24 -0.15
25 -0.15
26 0.28
27 -0.15
28 -0.15
29 0.08
3 -0.65
30 0.28
31 0.28
38 0.15
4 -0.65
5 -0.56
52 0.42
53 0.37
56 0.15
57 0.15
6 -0.36
60 0.15
61 0.15
7 -0.91
8 -0.73

> <PUBCHEM_EFFECTIVE_ROTOR_COUNT>
12.8

> <PUBCHEM_PHARMACOPHORE_FEATURES>
10
1 2 acceptor
1 3 acceptor
1 4 acceptor
1 5 acceptor
1 6 acceptor
1 7 donor
1 8 donor
3 13 18 19 hydrophobe
6 22 24 25 27 28 29 rings
6 9 10 11 12 14 15 rings

> <PUBCHEM_HEAVY_ATOM_COUNT>
31

> <PUBCHEM_ATOM_DEF_STEREO_COUNT>
3

> <PUBCHEM_ATOM_UDEF_STEREO_COUNT>
0

> <PUBCHEM_BOND_DEF_STEREO_COUNT>
0

> <PUBCHEM_BOND_UDEF_STEREO_COUNT>
0

> <PUBCHEM_ISOTOPIC_ATOM_COUNT>
0

> <PUBCHEM_COMPONENT_COUNT>
1

> <PUBCHEM_CACTVS_TAUTO_COUNT>
2

> <PUBCHEM_CONFORMER_ID>
0244416E00000002

> <PUBCHEM_MMFF94_ENERGY>
60.7059

> <PUBCHEM_FEATURE_SELFOVERLAP>
50.766

> <PUBCHEM_SHAPE_FINGERPRINT>
11513181 2 16539064779986137814
12156800 1 16970617161947687792
12633257 1 18410571743384511217
13122387 1 18264204884149044027
1361 2 17908416210636614643
13615921 28 16971659322824360655
14117953 113 17114940552890384838
14251757 5 18263945279799964430
14279260 333 17406839484787336478
15403338 16 17185873892135960453
17974551 9 18202001062159614177
19930381 70 17977100155007162379
20600515 1 18194705703361062965
20764821 26 17758954827131667474
21421861 104 16604362567894336283
35225 105 18191304875320312271
469060 322 16404475712828489459
5265222 85 18116734940373767956
5895379 119 15244559248932971454
6287921 2 17115521086830013682
9896288 288 17622455252085904457

> <PUBCHEM_SHAPE_MULTIPOLES>
602.51
6.91
6.47
2.55
1.71
5.51
1.7
0.68
0.16
1.34
-3.49
-0.12
-1.1
1.48

> <PUBCHEM_SHAPE_SELFOVERLAP>
1212.13

> <PUBCHEM_SHAPE_VOLUME>
356

> <PUBCHEM_COORDINATE_TYPE>
2
5
10

$$$$
