86768988
  -OEChem-12032416293D

 59 62  0     1  0  0  0  0  0999 V2000
   -2.1683    3.1105   -1.8487 O   0  0  0  0  0  0  0  0  0  0  0  0
   -3.0430    4.7490    0.2081 O   0  0  0  0  0  0  0  0  0  0  0  0
    6.6795   -0.9327   -0.1329 O   0  0  0  0  0  0  0  0  0  0  0  0
   -3.3399    0.2637    0.0658 N   0  0  0  0  0  0  0  0  0  0  0  0
   -3.2351   -3.9706   -0.2861 N   0  0  0  0  0  0  0  0  0  0  0  0
    1.9971   -0.1867    1.2595 N   0  0  0  0  0  0  0  0  0  0  0  0
    3.9919   -0.1196   -0.0123 N   0  0  0  0  0  0  0  0  0  0  0  0
   -2.3101    1.1905   -0.4088 C   0  0  2  0  0  0  0  0  0  0  0  0
   -1.3427    1.5413    0.7637 C   0  0  2  0  0  0  0  0  0  0  0  0
   -2.9545    2.5268   -0.8109 C   0  0  1  0  0  0  0  0  0  0  0  0
   -1.4896    3.0584    0.9909 C   0  0  0  0  0  0  0  0  0  0  0  0
   -2.8817    3.3680    0.4598 C   0  0  1  0  0  0  0  0  0  0  0  0
   -2.8235   -1.1020    0.1208 C   0  0  0  0  0  0  0  0  0  0  0  0
    0.0894    1.1087    0.5332 C   0  0  0  0  0  0  0  0  0  0  0  0
   -3.6379   -1.9572    1.0961 C   0  0  0  0  0  0  0  0  0  0  0  0
   -2.8475   -1.7341   -1.2732 C   0  0  0  0  0  0  0  0  0  0  0  0
   -3.1682   -3.4140    1.0723 C   0  0  0  0  0  0  0  0  0  0  0  0
   -2.4034   -3.1983   -1.2195 C   0  0  0  0  0  0  0  0  0  0  0  0
    0.8124    1.5746   -0.5594 C   0  0  0  0  0  0  0  0  0  0  0  0
    0.7218    0.2375    1.4055 C   0  0  0  0  0  0  0  0  0  0  0  0
   -2.8314   -5.3764   -0.2837 C   0  0  0  0  0  0  0  0  0  0  0  0
    2.1270    1.1606   -0.7436 C   0  0  0  0  0  0  0  0  0  0  0  0
    2.6683    0.2871    0.1859 C   0  0  0  0  0  0  0  0  0  0  0  0
    4.3871   -1.4515    0.4659 C   0  0  0  0  0  0  0  0  0  0  0  0
    5.0671    0.8779   -0.0417 C   0  0  0  0  0  0  0  0  0  0  0  0
    5.6454   -1.9081   -0.2635 C   0  0  0  0  0  0  0  0  0  0  0  0
    6.2897    0.2970   -0.7433 C   0  0  0  0  0  0  0  0  0  0  0  0
   -1.7779    0.7787   -1.2726 H   0  0  0  0  0  0  0  0  0  0  0  0
   -1.6961    1.0560    1.6858 H   0  0  0  0  0  0  0  0  0  0  0  0
   -3.9788    2.4464   -1.1895 H   0  0  0  0  0  0  0  0  0  0  0  0
   -1.3941    3.3226    2.0501 H   0  0  0  0  0  0  0  0  0  0  0  0
   -0.7339    3.6496    0.4594 H   0  0  0  0  0  0  0  0  0  0  0  0
   -3.6466    3.0462    1.1767 H   0  0  0  0  0  0  0  0  0  0  0  0
   -1.7913   -1.1129    0.4902 H   0  0  0  0  0  0  0  0  0  0  0  0
   -4.1557    0.2969   -0.5445 H   0  0  0  0  0  0  0  0  0  0  0  0
   -4.7045   -1.9166    0.8366 H   0  0  0  0  0  0  0  0  0  0  0  0
   -3.5432   -1.5607    2.1145 H   0  0  0  0  0  0  0  0  0  0  0  0
   -2.1884   -1.2026   -1.9681 H   0  0  0  0  0  0  0  0  0  0  0  0
   -3.8598   -1.6842   -1.6973 H   0  0  0  0  0  0  0  0  0  0  0  0
   -2.1475   -3.4787    1.4720 H   0  0  0  0  0  0  0  0  0  0  0  0
   -3.8169   -3.9918    1.7419 H   0  0  0  0  0  0  0  0  0  0  0  0
   -2.4922   -3.6186   -2.2288 H   0  0  0  0  0  0  0  0  0  0  0  0
   -1.3438   -3.2517   -0.9364 H   0  0  0  0  0  0  0  0  0  0  0  0
   -2.2399    2.5337   -2.6284 H   0  0  0  0  0  0  0  0  0  0  0  0
   -2.8932    5.2184    1.0464 H   0  0  0  0  0  0  0  0  0  0  0  0
    0.3702    2.2566   -1.2789 H   0  0  0  0  0  0  0  0  0  0  0  0
    0.2124   -0.1624    2.2768 H   0  0  0  0  0  0  0  0  0  0  0  0
   -1.7957   -5.5094    0.0494 H   0  0  0  0  0  0  0  0  0  0  0  0
   -2.9293   -5.8067   -1.2865 H   0  0  0  0  0  0  0  0  0  0  0  0
   -3.4831   -5.9629    0.3735 H   0  0  0  0  0  0  0  0  0  0  0  0
    2.6853    1.5132   -1.6046 H   0  0  0  0  0  0  0  0  0  0  0  0
    4.5809   -1.3990    1.5444 H   0  0  0  0  0  0  0  0  0  0  0  0
    3.5916   -2.1860    0.2927 H   0  0  0  0  0  0  0  0  0  0  0  0
    4.7668    1.7962   -0.5574 H   0  0  0  0  0  0  0  0  0  0  0  0
    5.3232    1.1430    0.9916 H   0  0  0  0  0  0  0  0  0  0  0  0
    6.0093   -2.8450    0.1699 H   0  0  0  0  0  0  0  0  0  0  0  0
    5.4475   -2.0888   -1.3271 H   0  0  0  0  0  0  0  0  0  0  0  0
    6.0962    0.1296   -1.8098 H   0  0  0  0  0  0  0  0  0  0  0  0
    7.1309    0.9929   -0.6642 H   0  0  0  0  0  0  0  0  0  0  0  0
  1 10  1  0  0  0  0
  1 44  1  0  0  0  0
  2 12  1  0  0  0  0
  2 45  1  0  0  0  0
  3 26  1  0  0  0  0
  3 27  1  0  0  0  0
  4  8  1  0  0  0  0
  4 13  1  0  0  0  0
  4 35  1  0  0  0  0
  5 17  1  0  0  0  0
  5 18  1  0  0  0  0
  5 21  1  0  0  0  0
  6 20  1  0  0  0  0
  6 23  2  0  0  0  0
  7 23  1  0  0  0  0
  7 24  1  0  0  0  0
  7 25  1  0  0  0  0
  8  9  1  0  0  0  0
  8 10  1  0  0  0  0
  8 28  1  0  0  0  0
  9 11  1  0  0  0  0
  9 14  1  0  0  0  0
  9 29  1  0  0  0  0
 10 12  1  0  0  0  0
 10 30  1  0  0  0  0
 11 12  1  0  0  0  0
 11 31  1  0  0  0  0
 11 32  1  0  0  0  0
 12 33  1  0  0  0  0
 13 15  1  0  0  0  0
 13 16  1  0  0  0  0
 13 34  1  0  0  0  0
 14 19  1  0  0  0  0
 14 20  2  0  0  0  0
 15 17  1  0  0  0  0
 15 36  1  0  0  0  0
 15 37  1  0  0  0  0
 16 18  1  0  0  0  0
 16 38  1  0  0  0  0
 16 39  1  0  0  0  0
 17 40  1  0  0  0  0
 17 41  1  0  0  0  0
 18 42  1  0  0  0  0
 18 43  1  0  0  0  0
 19 22  2  0  0  0  0
 19 46  1  0  0  0  0
 20 47  1  0  0  0  0
 21 48  1  0  0  0  0
 21 49  1  0  0  0  0
 21 50  1  0  0  0  0
 22 23  1  0  0  0  0
 22 51  1  0  0  0  0
 24 26  1  0  0  0  0
 24 52  1  0  0  0  0
 24 53  1  0  0  0  0
 25 27  1  0  0  0  0
 25 54  1  0  0  0  0
 25 55  1  0  0  0  0
 26 56  1  0  0  0  0
 26 57  1  0  0  0  0
 27 58  1  0  0  0  0
 27 59  1  0  0  0  0
M  END
> <PUBCHEM_COMPOUND_CID>
86768988

> <PUBCHEM_CONFORMER_RMSD>
0.8

> <PUBCHEM_CONFORMER_DIVERSEORDER>
2
105
27
82
29
92
83
18
52
75
91
57
49
89
56
58
54
37
68
34
104
73
60
31
107
97
41
26
16
72
100
39
42
95
65
79
69
59
62
101
30
85
17
98
63
66
70
38
80
88
5
19
84
45
93
53
99
51
32
48
102
21
77
71
6
24
87
103
55
33
36
8
25
40
47
35
106
22
50
96
76
9
74
7
10
43
94
44
23
15
46
20
28
81
13
3
12
61
67
14
1
90
86
78
64
4
11

> <PUBCHEM_MMFF94_PARTIAL_CHARGES>
30
1 -0.68
10 0.28
12 0.28
13 0.27
14 -0.14
17 0.27
18 0.27
19 -0.15
2 -0.68
20 0.16
21 0.27
22 -0.15
23 0.41
24 0.37
25 0.37
26 0.28
27 0.28
3 -0.56
35 0.36
4 -0.9
44 0.4
45 0.4
46 0.15
47 0.15
5 -0.81
51 0.15
6 -0.62
7 -0.84
8 0.27
9 0.14

> <PUBCHEM_EFFECTIVE_ROTOR_COUNT>
7.4

> <PUBCHEM_PHARMACOPHORE_FEATURES>
13
1 1 acceptor
1 1 donor
1 2 acceptor
1 2 donor
1 3 acceptor
1 4 cation
1 4 donor
1 5 cation
3 6 7 23 cation
5 8 9 10 11 12 rings
6 3 7 24 25 26 27 rings
6 5 13 15 16 17 18 rings
6 6 14 19 20 22 23 rings

> <PUBCHEM_HEAVY_ATOM_COUNT>
27

> <PUBCHEM_ATOM_DEF_STEREO_COUNT>
4

> <PUBCHEM_ATOM_UDEF_STEREO_COUNT>
0

> <PUBCHEM_BOND_DEF_STEREO_COUNT>
0

> <PUBCHEM_BOND_UDEF_STEREO_COUNT>
0

> <PUBCHEM_ISOTOPIC_ATOM_COUNT>
0

> <PUBCHEM_COMPONENT_COUNT>
1

> <PUBCHEM_CACTVS_TAUTO_COUNT>
1

> <PUBCHEM_CONFORMER_ID>
052BFD5C00000002

> <PUBCHEM_MMFF94_ENERGY>
75.2799

> <PUBCHEM_FEATURE_SELFOVERLAP>
65.981

> <PUBCHEM_SHAPE_FINGERPRINT>
10319688 140 17040636661219152647
10483366 6 18200010921108206511
107951 10 18127691518015346013
11056379 131 18411705382869757180
11069576 57 16544937249926148311
11315621 246 18341065102718092606
11552529 35 18410289212019873324
12107183 9 18053682527763599731
12293681 25 17764553863063658821
12553582 1 18264759042858239971
12633257 1 15409499994092006351
12788726 201 18334847325629101915
12969540 37 17402328669149378543
13103583 49 17702122445476160211
13257819 37 18042950001295534493
13583140 156 17846486020775508656
13631057 29 18338234972541171122
14114206 34 17969485169254174491
14251757 5 18410568487846701739
14659021 117 18337101393085617482
14844126 61 18410858763227265691
15042514 8 18410859897562751099
15230672 131 18050012091498684366
15250474 111 18261945263954501210
15439362 3 17256806698970173157
15463212 79 18114738214093080872
15803439 3 17682083653307862141
15927050 60 17910673164774194589
17859628 70 17113536477032279699
17909252 39 18123755511432911736
19958102 18 18264764368105640015
20101258 96 18338805631597327449
20775530 9 18046336698340005259
21716022 299 17609229192338740093
23379529 103 18267871764313263654
23559900 14 18272079445595315672
38695281 34 17976540507509161984
4058900 60 17693381040515359089
4073 2 18412262797401579410
4409770 3 18410853244563301663
463206 1 18047758383870154714
5309563 4 18051973920125521103
56633871 153 18198070381390011099
57091435 61 8251858947457520714
59755656 520 18267581300117760669
613672 6 17908395280907300003
6431902 208 18337952419581118310
6898599 12 18335424534700327252
7970288 3 18051413173363774014

> <PUBCHEM_SHAPE_MULTIPOLES>
518.12
11.81
6.04
1.22
24.71
2.38
0.08
6.99
1.26
-11.53
0.54
-0.68
-0.09
-0.03

> <PUBCHEM_SHAPE_SELFOVERLAP>
1086.092

> <PUBCHEM_SHAPE_VOLUME>
292.8

> <PUBCHEM_COORDINATE_TYPE>
2
5
10

$$$$
