26745471
  -OEChem-12032416183D

 53 56  0     1  0  0  0  0  0999 V2000
    5.2670   -3.5127   -2.5038 Cl  0  0  0  0  0  0  0  0  0  0  0  0
   -2.2654    0.3902   -0.5523 S   0  0  0  0  0  0  0  0  0  0  0  0
   -1.7900   -0.3858   -1.6761 O   0  0  0  0  0  0  0  0  0  0  0  0
   -3.3142    1.3752   -0.6957 O   0  0  0  0  0  0  0  0  0  0  0  0
    0.5023    3.5361   -2.1207 O   0  0  0  0  0  0  0  0  0  0  0  0
    0.3982    1.2284   -2.1379 O   0  0  0  0  0  0  0  0  0  0  0  0
   -0.9218    1.1256    0.2155 N   0  0  2  0  0  0  0  0  0  0  0  0
    2.2975    0.4874    2.0097 N   0  0  0  0  0  0  0  0  0  0  0  0
    2.4338    2.7160    2.0880 N   0  0  0  0  0  0  0  0  0  0  0  0
   -0.5108    2.4821   -0.2983 C   0  0  1  0  0  0  0  0  0  0  0  0
    0.1973    0.1870    0.5954 C   0  0  0  0  0  0  0  0  0  0  0  0
    0.3678    3.2406    0.7201 C   0  0  0  0  0  0  0  0  0  0  0  0
    1.2349    0.9628    1.3014 C   0  0  0  0  0  0  0  0  0  0  0  0
    1.3430    2.3303    1.3602 C   0  0  0  0  0  0  0  0  0  0  0  0
   -2.7421   -0.7374    0.7316 C   0  0  0  0  0  0  0  0  0  0  0  0
    0.1761    2.3124   -1.6157 C   0  0  0  0  0  0  0  0  0  0  0  0
    2.6464   -0.8934    2.2399 C   0  0  0  0  0  0  0  0  0  0  0  0
    2.9896    1.5817    2.4646 C   0  0  0  0  0  0  0  0  0  0  0  0
   -4.1655   -1.1328    0.4860 C   0  0  0  0  0  0  0  0  0  0  0  0
    3.3040   -1.5499    1.0515 C   0  0  0  0  0  0  0  0  0  0  0  0
   -4.4765   -2.0123   -0.5509 C   0  0  0  0  0  0  0  0  0  0  0  0
   -5.1805   -0.6210    1.2945 C   0  0  0  0  0  0  0  0  0  0  0  0
    2.7477   -2.7019    0.4951 C   0  0  0  0  0  0  0  0  0  0  0  0
    4.4679   -1.0053    0.5088 C   0  0  0  0  0  0  0  0  0  0  0  0
    1.1692    3.5209   -3.3868 C   0  0  0  0  0  0  0  0  0  0  0  0
   -5.8026   -2.3801   -0.7794 C   0  0  0  0  0  0  0  0  0  0  0  0
   -6.5064   -0.9889    1.0661 C   0  0  0  0  0  0  0  0  0  0  0  0
    3.3554   -3.3093   -0.6036 C   0  0  0  0  0  0  0  0  0  0  0  0
    5.0757   -1.6127   -0.5899 C   0  0  0  0  0  0  0  0  0  0  0  0
   -6.8174   -1.8684    0.0290 C   0  0  0  0  0  0  0  0  0  0  0  0
    4.5195   -2.7647   -1.1461 C   0  0  0  0  0  0  0  0  0  0  0  0
   -1.4140    3.0789   -0.4742 H   0  0  0  0  0  0  0  0  0  0  0  0
    0.6132   -0.3109   -0.2840 H   0  0  0  0  0  0  0  0  0  0  0  0
   -0.1868   -0.5750    1.2787 H   0  0  0  0  0  0  0  0  0  0  0  0
   -0.2791    3.6435    1.5097 H   0  0  0  0  0  0  0  0  0  0  0  0
    0.8872    4.0907    0.2659 H   0  0  0  0  0  0  0  0  0  0  0  0
   -2.0874   -1.6131    0.7183 H   0  0  0  0  0  0  0  0  0  0  0  0
   -2.6452   -0.2266    1.6949 H   0  0  0  0  0  0  0  0  0  0  0  0
    1.7295   -1.4175    2.5340 H   0  0  0  0  0  0  0  0  0  0  0  0
    3.3247   -0.9395    3.1006 H   0  0  0  0  0  0  0  0  0  0  0  0
    3.8869    1.4913    3.0618 H   0  0  0  0  0  0  0  0  0  0  0  0
   -3.6963   -2.4255   -1.1842 H   0  0  0  0  0  0  0  0  0  0  0  0
   -4.9536    0.0667    2.1047 H   0  0  0  0  0  0  0  0  0  0  0  0
    1.8405   -3.1359    0.9068 H   0  0  0  0  0  0  0  0  0  0  0  0
    4.9220   -0.1148    0.9340 H   0  0  0  0  0  0  0  0  0  0  0  0
    1.3725    4.5552   -3.6765 H   0  0  0  0  0  0  0  0  0  0  0  0
    0.5290    3.0623   -4.1464 H   0  0  0  0  0  0  0  0  0  0  0  0
    2.1199    2.9850   -3.3071 H   0  0  0  0  0  0  0  0  0  0  0  0
   -6.0446   -3.0662   -1.5858 H   0  0  0  0  0  0  0  0  0  0  0  0
   -7.2967   -0.5903    1.6952 H   0  0  0  0  0  0  0  0  0  0  0  0
    2.9103   -4.2059   -1.0273 H   0  0  0  0  0  0  0  0  0  0  0  0
    5.9832   -1.1784   -1.0013 H   0  0  0  0  0  0  0  0  0  0  0  0
   -7.8498   -2.1549   -0.1486 H   0  0  0  0  0  0  0  0  0  0  0  0
  1 31  1  0  0  0  0
  2  3  2  0  0  0  0
  2  4  2  0  0  0  0
  2  7  1  0  0  0  0
  2 15  1  0  0  0  0
  5 16  1  0  0  0  0
  5 25  1  0  0  0  0
  6 16  2  0  0  0  0
  7 10  1  0  0  0  0
  7 11  1  0  0  0  0
  8 13  1  0  0  0  0
  8 17  1  0  0  0  0
  8 18  1  0  0  0  0
  9 14  1  0  0  0  0
  9 18  2  0  0  0  0
 10 12  1  0  0  0  0
 10 16  1  0  0  0  0
 10 32  1  0  0  0  0
 11 13  1  0  0  0  0
 11 33  1  0  0  0  0
 11 34  1  0  0  0  0
 12 14  1  0  0  0  0
 12 35  1  0  0  0  0
 12 36  1  0  0  0  0
 13 14  2  0  0  0  0
 15 19  1  0  0  0  0
 15 37  1  0  0  0  0
 15 38  1  0  0  0  0
 17 20  1  0  0  0  0
 17 39  1  0  0  0  0
 17 40  1  0  0  0  0
 18 41  1  0  0  0  0
 19 21  2  0  0  0  0
 19 22  1  0  0  0  0
 20 23  2  0  0  0  0
 20 24  1  0  0  0  0
 21 26  1  0  0  0  0
 21 42  1  0  0  0  0
 22 27  2  0  0  0  0
 22 43  1  0  0  0  0
 23 28  1  0  0  0  0
 23 44  1  0  0  0  0
 24 29  2  0  0  0  0
 24 45  1  0  0  0  0
 25 46  1  0  0  0  0
 25 47  1  0  0  0  0
 25 48  1  0  0  0  0
 26 30  2  0  0  0  0
 26 49  1  0  0  0  0
 27 30  1  0  0  0  0
 27 50  1  0  0  0  0
 28 31  2  0  0  0  0
 28 51  1  0  0  0  0
 29 31  1  0  0  0  0
 29 52  1  0  0  0  0
 30 53  1  0  0  0  0
M  END
> <PUBCHEM_COMPOUND_CID>
26745471

> <PUBCHEM_CONFORMER_RMSD>
1

> <PUBCHEM_CONFORMER_DIVERSEORDER>
1
127
35
96
74
11
107
36
147
160
30
111
88
75
112
114
128
48
152
121
82
18
46
143
37
65
101
118
151
56
9
97
92
76
22
52
50
115
155
45
87
28
117
132
51
134
139
84
71
20
31
157
161
159
12
44
137
122
153
57
98
13
138
102
150
81
124
26
125
61
90
131
23
141
64
25
140
14
99
136
119
120
85
123
105
103
68
100
10
6
130
109
158
126
93
67
53
142
135
5
38
62
42
104
60
16
15
4
95
106
129
149
156
154
94
78
146
148
133
21
39
2
69
80
34
145
8
113
108
77
83
54
144
58
66
79
164
27
7
17
110
40
91
63
47
29
43
59
32
19
162
24
41
116
33
89
55
49
72
70
163
73
86
3

> <PUBCHEM_MMFF94_PARTIAL_CHARGES>
41
1 -0.18
10 0.42
11 0.54
12 0.18
13 -0.33
14 0.05
15 0.25
16 0.66
17 0.4
18 0.04
19 -0.14
2 1.33
20 -0.14
21 -0.15
22 -0.15
23 -0.15
24 -0.15
25 0.28
26 -0.15
27 -0.15
28 -0.15
29 -0.15
3 -0.65
30 -0.15
31 0.18
4 -0.65
41 0.15
42 0.15
43 0.15
44 0.15
45 0.15
49 0.15
5 -0.43
50 0.15
51 0.15
52 0.15
53 0.15
6 -0.57
7 -0.85
8 0.05
9 -0.57

> <PUBCHEM_EFFECTIVE_ROTOR_COUNT>
7.8

> <PUBCHEM_PHARMACOPHORE_FEATURES>
8
1 3 acceptor
1 4 acceptor
1 6 acceptor
3 8 9 18 cation
5 8 9 13 14 18 rings
6 19 21 22 26 27 30 rings
6 20 23 24 28 29 31 rings
6 7 10 11 12 13 14 rings

> <PUBCHEM_HEAVY_ATOM_COUNT>
31

> <PUBCHEM_ATOM_DEF_STEREO_COUNT>
1

> <PUBCHEM_ATOM_UDEF_STEREO_COUNT>
0

> <PUBCHEM_BOND_DEF_STEREO_COUNT>
0

> <PUBCHEM_BOND_UDEF_STEREO_COUNT>
0

> <PUBCHEM_ISOTOPIC_ATOM_COUNT>
0

> <PUBCHEM_COMPONENT_COUNT>
1

> <PUBCHEM_CACTVS_TAUTO_COUNT>
1

> <PUBCHEM_CONFORMER_ID>
01981A7F00000001

> <PUBCHEM_MMFF94_ENERGY>
72.1764

> <PUBCHEM_FEATURE_SELFOVERLAP>
40.722

> <PUBCHEM_SHAPE_FINGERPRINT>
10554248 39 18189886695522999655
10764073 3 16986043288784783945
107951 10 16476003879724085016
10951579 204 17460569482814800325
11399939 17 17986112035718994215
11513181 2 17415837152834122142
11954058 11 18272653480326460631
11991303 11 17755581547597132101
12013929 27 17909852942139050390
12156800 1 16769618757242014608
12422481 6 14907903726092999001
12623949 98 18342734160672983503
13135754 10 17772757069714611376
13533116 47 18059008510152806379
13673619 4 18271811164288730378
13757389 114 17828493461774333373
14251764 30 18130231445599832902
14863182 85 18193830672741756240
14918310 93 17896026815014911236
15664445 248 17822292422541731164
16991981 162 16881036599721895252
1813 80 18114176436939868753
1979834 28 18194389216111213465
20505436 4 15696576983215841576
20775530 9 18338513041118666811
21716022 299 18199208285751194260
22889206 1 17340950563107636521
23559900 14 18114467880857784099
3117164 225 18059576850363738489
3388396 114 17534380853686107220
3737641 26 18131067083332566034
437815 12 18272374127074104947
4394409 98 15668167303276958542
44317340 157 11170181018221340627
5081480 168 17385442150806173103
57091435 61 9439409038347919355
86090 222 18114176484464922899
9555976 147 16343714244501410723
9831232 110 17968650627798528755

> <PUBCHEM_SHAPE_MULTIPOLES>
605.26
13.09
4.82
2.64
17.31
1.36
1.2
-17.64
-0.1
-4.6
2.79
-2.87
2.06
2.21

> <PUBCHEM_SHAPE_SELFOVERLAP>
1288.243

> <PUBCHEM_SHAPE_VOLUME>
338.6

> <PUBCHEM_COORDINATE_TYPE>
2
5
10

$$$$
