75536290
  -OEChem-12032416303D

 51 53  0     1  0  0  0  0  0999 V2000
   -6.1695    0.8008    0.0468 Cl  0  0  0  0  0  0  0  0  0  0  0  0
    2.6383   -0.0199    0.6309 O   0  0  0  0  0  0  0  0  0  0  0  0
    4.9930    1.3122    1.8009 O   0  0  0  0  0  0  0  0  0  0  0  0
   -0.5983   -2.7506   -1.0896 O   0  0  0  0  0  0  0  0  0  0  0  0
   -2.6660   -2.0215    0.9687 O   0  0  0  0  0  0  0  0  0  0  0  0
    0.4591    1.7461    0.1298 N   0  0  0  0  0  0  0  0  0  0  0  0
    0.6634   -2.4373   -1.5803 N   0  0  0  0  0  0  0  0  0  0  0  0
    2.7838    1.3910    0.8388 C   0  0  1  0  0  0  0  0  0  0  0  0
    4.2472    1.8286    0.6953 C   0  0  2  0  0  0  0  0  0  0  0  0
    3.1463   -0.5068   -0.6136 C   0  0  1  0  0  0  0  0  0  0  0  0
    4.8885    1.3016   -0.5856 C   0  0  0  0  0  0  0  0  0  0  0  0
    4.6360   -0.1948   -0.7466 C   0  0  0  0  0  0  0  0  0  0  0  0
    1.8344    2.1805   -0.0599 C   0  0  0  0  0  0  0  0  0  0  0  0
    2.9014   -2.0104   -0.6517 C   0  0  0  0  0  0  0  0  0  0  0  0
    1.4413   -2.3416   -0.4982 C   0  0  0  0  0  0  0  0  0  0  0  0
   -0.4507    2.5048   -0.7189 C   0  0  0  0  0  0  0  0  0  0  0  0
    0.7323   -2.5820    0.6915 C   0  0  0  0  0  0  0  0  0  0  0  0
   -1.8822    2.0794   -0.5275 C   0  0  0  0  0  0  0  0  0  0  0  0
   -0.5446   -2.8340    0.2644 C   0  0  0  0  0  0  0  0  0  0  0  0
   -1.8002   -3.1598    0.9512 C   0  0  0  0  0  0  0  0  0  0  0  0
   -2.4167    1.0580   -1.3128 C   0  0  0  0  0  0  0  0  0  0  0  0
   -2.6737    2.7060    0.4350 C   0  0  0  0  0  0  0  0  0  0  0  0
   -3.7428    0.6634   -1.1359 C   0  0  0  0  0  0  0  0  0  0  0  0
   -3.9999    2.3115    0.6120 C   0  0  0  0  0  0  0  0  0  0  0  0
   -4.5344    1.2902   -0.1733 C   0  0  0  0  0  0  0  0  0  0  0  0
   -3.8861   -2.3155    1.6286 C   0  0  0  0  0  0  0  0  0  0  0  0
    2.4839    1.5575    1.8819 H   0  0  0  0  0  0  0  0  0  0  0  0
    4.3252    2.9205    0.7403 H   0  0  0  0  0  0  0  0  0  0  0  0
    2.5919   -0.0419   -1.4374 H   0  0  0  0  0  0  0  0  0  0  0  0
    5.9701    1.4806   -0.5769 H   0  0  0  0  0  0  0  0  0  0  0  0
    4.4782    1.8332   -1.4520 H   0  0  0  0  0  0  0  0  0  0  0  0
    5.0146   -0.5342   -1.7173 H   0  0  0  0  0  0  0  0  0  0  0  0
    5.1989   -0.7309    0.0280 H   0  0  0  0  0  0  0  0  0  0  0  0
    2.1116    2.0687   -1.1137 H   0  0  0  0  0  0  0  0  0  0  0  0
    1.9238    3.2458    0.1865 H   0  0  0  0  0  0  0  0  0  0  0  0
    3.4454   -2.5006    0.1666 H   0  0  0  0  0  0  0  0  0  0  0  0
    3.2808   -2.4356   -1.5891 H   0  0  0  0  0  0  0  0  0  0  0  0
    0.3860    0.7524   -0.0886 H   0  0  0  0  0  0  0  0  0  0  0  0
    5.9053    1.6385    1.7180 H   0  0  0  0  0  0  0  0  0  0  0  0
   -0.1814    2.3853   -1.7767 H   0  0  0  0  0  0  0  0  0  0  0  0
   -0.3697    3.5778   -0.5016 H   0  0  0  0  0  0  0  0  0  0  0  0
    1.0940   -2.5734    1.7091 H   0  0  0  0  0  0  0  0  0  0  0  0
   -2.3009   -3.9889    0.4372 H   0  0  0  0  0  0  0  0  0  0  0  0
   -1.5926   -3.4710    1.9819 H   0  0  0  0  0  0  0  0  0  0  0  0
   -1.8089    0.5591   -2.0631 H   0  0  0  0  0  0  0  0  0  0  0  0
   -2.2684    3.5016    1.0546 H   0  0  0  0  0  0  0  0  0  0  0  0
   -4.1450   -0.1360   -1.7530 H   0  0  0  0  0  0  0  0  0  0  0  0
   -4.6047    2.8080    1.3664 H   0  0  0  0  0  0  0  0  0  0  0  0
   -4.4365   -3.0917    1.0883 H   0  0  0  0  0  0  0  0  0  0  0  0
   -3.7017   -2.6331    2.6596 H   0  0  0  0  0  0  0  0  0  0  0  0
   -4.4951   -1.4090    1.6521 H   0  0  0  0  0  0  0  0  0  0  0  0
  1 25  1  0  0  0  0
  2  8  1  0  0  0  0
  2 10  1  0  0  0  0
  3  9  1  0  0  0  0
  3 39  1  0  0  0  0
  4  7  1  0  0  0  0
  4 19  1  0  0  0  0
  5 20  1  0  0  0  0
  5 26  1  0  0  0  0
  6 13  1  0  0  0  0
  6 16  1  0  0  0  0
  6 38  1  0  0  0  0
  7 15  2  0  0  0  0
  8  9  1  0  0  0  0
  8 13  1  0  0  0  0
  8 27  1  0  0  0  0
  9 11  1  0  0  0  0
  9 28  1  0  0  0  0
 10 12  1  0  0  0  0
 10 14  1  0  0  0  0
 10 29  1  0  0  0  0
 11 12  1  0  0  0  0
 11 30  1  0  0  0  0
 11 31  1  0  0  0  0
 12 32  1  0  0  0  0
 12 33  1  0  0  0  0
 13 34  1  0  0  0  0
 13 35  1  0  0  0  0
 14 15  1  0  0  0  0
 14 36  1  0  0  0  0
 14 37  1  0  0  0  0
 15 17  1  0  0  0  0
 16 18  1  0  0  0  0
 16 40  1  0  0  0  0
 16 41  1  0  0  0  0
 17 19  2  0  0  0  0
 17 42  1  0  0  0  0
 18 21  2  0  0  0  0
 18 22  1  0  0  0  0
 19 20  1  0  0  0  0
 20 43  1  0  0  0  0
 20 44  1  0  0  0  0
 21 23  1  0  0  0  0
 21 45  1  0  0  0  0
 22 24  2  0  0  0  0
 22 46  1  0  0  0  0
 23 25  2  0  0  0  0
 23 47  1  0  0  0  0
 24 25  1  0  0  0  0
 24 48  1  0  0  0  0
 26 49  1  0  0  0  0
 26 50  1  0  0  0  0
 26 51  1  0  0  0  0
M  END
> <PUBCHEM_COMPOUND_CID>
75536290

> <PUBCHEM_CONFORMER_RMSD>
1

> <PUBCHEM_CONFORMER_DIVERSEORDER>
1
31
23
104
91
6
88
85
38
57
56
94
58
41
5
68
24
76
42
11
110
106
90
36
12
48
78
40
9
47
8
53
54
98
73
79
55
70
107
69
102
16
21
28
51
29
35
77
25
89
50
13
19
84
46
63
37
65
32
49
52
33
64
97
66
101
80
39
83
20
43
67
7
93
82
27
95
108
45
2
99
44
75
14
61
15
81
87
60
3
10
86
71
96
100
26
59
4
30
22
72
103
74
62
18
109
34
105
92
17

> <PUBCHEM_MMFF94_PARTIAL_CHARGES>
31
1 -0.18
10 0.28
13 0.27
14 0.18
15 0.11
16 0.41
17 -0.15
18 -0.14
19 -0.04
2 -0.56
20 0.46
21 -0.15
22 -0.15
23 -0.15
24 -0.15
25 0.18
26 0.28
3 -0.68
38 0.36
39 0.4
4 -0.02
42 0.15
45 0.15
46 0.15
47 0.15
48 0.15
5 -0.56
6 -0.9
7 -0.41
8 0.28
9 0.28

> <PUBCHEM_EFFECTIVE_ROTOR_COUNT>
9.2

> <PUBCHEM_PHARMACOPHORE_FEATURES>
10
1 2 acceptor
1 3 acceptor
1 3 donor
1 5 acceptor
1 6 cation
1 6 donor
1 7 acceptor
5 4 7 15 17 19 rings
6 18 21 22 23 24 25 rings
6 2 8 9 10 11 12 rings

> <PUBCHEM_HEAVY_ATOM_COUNT>
26

> <PUBCHEM_ATOM_DEF_STEREO_COUNT>
3

> <PUBCHEM_ATOM_UDEF_STEREO_COUNT>
0

> <PUBCHEM_BOND_DEF_STEREO_COUNT>
0

> <PUBCHEM_BOND_UDEF_STEREO_COUNT>
0

> <PUBCHEM_ISOTOPIC_ATOM_COUNT>
0

> <PUBCHEM_COMPONENT_COUNT>
1

> <PUBCHEM_CACTVS_TAUTO_COUNT>
1

> <PUBCHEM_CONFORMER_ID>
048097A200000001

> <PUBCHEM_MMFF94_ENERGY>
44.3756

> <PUBCHEM_FEATURE_SELFOVERLAP>
50.748

> <PUBCHEM_SHAPE_FINGERPRINT>
10316853 100 18335990826348560329
108634 29 18267316347732337046
11014199 57 17329714730712833018
11112241 14 17774144829662047233
11513181 2 18202002118690050887
12156800 1 17973760087399692510
12422481 6 18119559710779475035
12633257 1 18190172386833469299
12788726 201 17830736813576542636
13402501 40 18409452483744865259
13726171 33 18045520835185264300
14363568 33 16964942964725715529
14725015 67 17974562503407721339
17093844 170 18409729551779337552
17852330 162 18048630233553589732
20764821 26 18335153015441327983
21197605 99 18341614858527056103
22182313 1 18271820059503246846
238 59 18121790434803405760
238918 7 18343305902635553814
3052486 1 18187652457070678516
338550 245 18261964066656243061
392239 28 18265059042128942947
469060 322 16443337736648516791
5081480 168 17056999236596177566
508706 21 18335985375798146143
5283268 108 18046359792136166626
6287921 2 17843953755059684911

> <PUBCHEM_SHAPE_MULTIPOLES>
503.5
10.88
4.48
1.32
2.12
2.69
0.09
-5.77
1.34
1.47
0.57
-0.11
0.33
1.87

> <PUBCHEM_SHAPE_SELFOVERLAP>
1039.167

> <PUBCHEM_SHAPE_VOLUME>
289

> <PUBCHEM_COORDINATE_TYPE>
2
5
10

$$$$
