44716321
  -OEChem-12032416163D

 54 57  0     1  0  0  0  0  0999 V2000
   -4.6961    0.3486    0.7050 N   0  0  2  0  0  0  0  0  0  0  0  0
   -0.7264   -2.2658    0.4738 N   0  0  0  0  0  0  0  0  0  0  0  0
   -3.3150    3.8629    0.5708 N   0  0  0  0  0  0  0  0  0  0  0  0
    0.6112   -2.1868    0.5783 N   0  0  0  0  0  0  0  0  0  0  0  0
    6.1957    0.9039   -0.1319 N   0  0  0  0  0  0  0  0  0  0  0  0
   -3.3044   -0.1318   -1.4435 C   0  0  2  0  0  0  0  0  0  0  0  0
   -2.8060   -1.0126   -0.2644 C   0  0  2  0  0  0  0  0  0  0  0  0
   -4.2199    1.6259    0.1116 C   0  0  2  0  0  0  0  0  0  0  0  0
   -3.2256    1.3552   -1.0382 C   0  0  0  0  0  0  0  0  0  0  0  0
   -4.7971   -0.4673   -1.6498 C   0  0  0  0  0  0  0  0  0  0  0  0
   -3.5404   -0.5284    1.0185 C   0  0  0  0  0  0  0  0  0  0  0  0
   -5.5361   -0.3368   -0.3065 C   0  0  0  0  0  0  0  0  0  0  0  0
   -1.3048   -1.1489   -0.0536 C   0  0  0  0  0  0  0  0  0  0  0  0
   -3.6341    2.5732    1.1608 C   0  0  0  0  0  0  0  0  0  0  0  0
   -0.2741   -0.2785   -0.3116 C   0  0  0  0  0  0  0  0  0  0  0  0
    0.8816   -0.9705    0.0970 C   0  0  0  0  0  0  0  0  0  0  0  0
   -1.3984   -3.4678    0.9104 C   0  0  0  0  0  0  0  0  0  0  0  0
    2.2380   -0.4917    0.0379 C   0  0  0  0  0  0  0  0  0  0  0  0
    2.5020    0.8731    0.1533 C   0  0  0  0  0  0  0  0  0  0  0  0
    3.2887   -1.3931   -0.1338 C   0  0  0  0  0  0  0  0  0  0  0  0
    3.8163    1.3366    0.0967 C   0  0  0  0  0  0  0  0  0  0  0  0
    4.6029   -0.9297   -0.1905 C   0  0  0  0  0  0  0  0  0  0  0  0
    4.8667    0.4351   -0.0753 C   0  0  0  0  0  0  0  0  0  0  0  0
    6.4802    2.3201   -0.0124 C   0  0  0  0  0  0  0  0  0  0  0  0
    7.2951   -0.0251   -0.3026 C   0  0  0  0  0  0  0  0  0  0  0  0
   -2.7308   -0.3187   -2.3575 H   0  0  0  0  0  0  0  0  0  0  0  0
   -3.1699   -2.0270   -0.4867 H   0  0  0  0  0  0  0  0  0  0  0  0
   -5.0982    2.1398   -0.3076 H   0  0  0  0  0  0  0  0  0  0  0  0
   -3.4941    1.9786   -1.9006 H   0  0  0  0  0  0  0  0  0  0  0  0
   -2.2074    1.6294   -0.7607 H   0  0  0  0  0  0  0  0  0  0  0  0
   -5.2334    0.2142   -2.3901 H   0  0  0  0  0  0  0  0  0  0  0  0
   -4.9108   -1.4855   -2.0399 H   0  0  0  0  0  0  0  0  0  0  0  0
   -2.8552   -0.0246    1.7098 H   0  0  0  0  0  0  0  0  0  0  0  0
   -3.9035   -1.4024    1.5753 H   0  0  0  0  0  0  0  0  0  0  0  0
   -6.4746    0.2130   -0.4494 H   0  0  0  0  0  0  0  0  0  0  0  0
   -5.8297   -1.3273    0.0638 H   0  0  0  0  0  0  0  0  0  0  0  0
   -4.3614    2.7280    1.9661 H   0  0  0  0  0  0  0  0  0  0  0  0
   -2.7268    2.1637    1.6169 H   0  0  0  0  0  0  0  0  0  0  0  0
   -0.3337    0.7058   -0.7486 H   0  0  0  0  0  0  0  0  0  0  0  0
   -2.9419    4.4811    1.2902 H   0  0  0  0  0  0  0  0  0  0  0  0
   -2.5764    3.7624   -0.1233 H   0  0  0  0  0  0  0  0  0  0  0  0
   -2.1689   -3.1974    1.6356 H   0  0  0  0  0  0  0  0  0  0  0  0
   -1.8359   -3.9559    0.0363 H   0  0  0  0  0  0  0  0  0  0  0  0
   -0.6747   -4.1379    1.3824 H   0  0  0  0  0  0  0  0  0  0  0  0
    1.7054    1.5986    0.2988 H   0  0  0  0  0  0  0  0  0  0  0  0
    3.1135   -2.4615   -0.2349 H   0  0  0  0  0  0  0  0  0  0  0  0
    3.9697    2.4068    0.1939 H   0  0  0  0  0  0  0  0  0  0  0  0
    5.3849   -1.6701   -0.3273 H   0  0  0  0  0  0  0  0  0  0  0  0
    6.0054    2.8890   -0.8196 H   0  0  0  0  0  0  0  0  0  0  0  0
    6.1487    2.7101    0.9564 H   0  0  0  0  0  0  0  0  0  0  0  0
    7.5547    2.5242   -0.0789 H   0  0  0  0  0  0  0  0  0  0  0  0
    7.3426   -0.7391    0.5272 H   0  0  0  0  0  0  0  0  0  0  0  0
    7.2110   -0.5682   -1.2505 H   0  0  0  0  0  0  0  0  0  0  0  0
    8.2615    0.4909   -0.3246 H   0  0  0  0  0  0  0  0  0  0  0  0
  1  8  1  0  0  0  0
  1 11  1  0  0  0  0
  1 12  1  0  0  0  0
  2  4  1  0  0  0  0
  2 13  1  0  0  0  0
  2 17  1  0  0  0  0
  3 14  1  0  0  0  0
  3 40  1  0  0  0  0
  3 41  1  0  0  0  0
  4 16  2  0  0  0  0
  5 23  1  0  0  0  0
  5 24  1  0  0  0  0
  5 25  1  0  0  0  0
  6  7  1  0  0  0  0
  6  9  1  0  0  0  0
  6 10  1  0  0  0  0
  6 26  1  0  0  0  0
  7 11  1  0  0  0  0
  7 13  1  0  0  0  0
  7 27  1  0  0  0  0
  8  9  1  0  0  0  0
  8 14  1  0  0  0  0
  8 28  1  0  0  0  0
  9 29  1  0  0  0  0
  9 30  1  0  0  0  0
 10 12  1  0  0  0  0
 10 31  1  0  0  0  0
 10 32  1  0  0  0  0
 11 33  1  0  0  0  0
 11 34  1  0  0  0  0
 12 35  1  0  0  0  0
 12 36  1  0  0  0  0
 13 15  2  0  0  0  0
 14 37  1  0  0  0  0
 14 38  1  0  0  0  0
 15 16  1  0  0  0  0
 15 39  1  0  0  0  0
 16 18  1  0  0  0  0
 17 42  1  0  0  0  0
 17 43  1  0  0  0  0
 17 44  1  0  0  0  0
 18 19  2  0  0  0  0
 18 20  1  0  0  0  0
 19 21  1  0  0  0  0
 19 45  1  0  0  0  0
 20 22  2  0  0  0  0
 20 46  1  0  0  0  0
 21 23  2  0  0  0  0
 21 47  1  0  0  0  0
 22 23  1  0  0  0  0
 22 48  1  0  0  0  0
 24 49  1  0  0  0  0
 24 50  1  0  0  0  0
 24 51  1  0  0  0  0
 25 52  1  0  0  0  0
 25 53  1  0  0  0  0
 25 54  1  0  0  0  0
M  END
> <PUBCHEM_COMPOUND_CID>
44716321

> <PUBCHEM_CONFORMER_RMSD>
0.8

> <PUBCHEM_CONFORMER_DIVERSEORDER>
1
4
6
5
3
8
2
7

> <PUBCHEM_MMFF94_PARTIAL_CHARGES>
29
1 -0.81
11 0.27
12 0.27
13 -0.33
14 0.27
15 -0.15
16 0.23
17 0.26
18 0.05
19 -0.15
2 0.31
20 -0.15
21 -0.15
22 -0.15
23 0.1
24 0.37
25 0.37
3 -0.99
39 0.15
4 -0.71
40 0.36
41 0.36
45 0.15
46 0.15
47 0.15
48 0.15
5 -0.84
7 0.18
8 0.27

> <PUBCHEM_EFFECTIVE_ROTOR_COUNT>
5.2

> <PUBCHEM_PHARMACOPHORE_FEATURES>
8
1 1 cation
1 3 cation
1 3 donor
1 4 acceptor
1 5 cation
5 2 4 13 15 16 rings
6 18 19 20 21 22 23 rings
8 1 6 7 8 9 10 11 12 rings

> <PUBCHEM_HEAVY_ATOM_COUNT>
25

> <PUBCHEM_ATOM_DEF_STEREO_COUNT>
3

> <PUBCHEM_ATOM_UDEF_STEREO_COUNT>
0

> <PUBCHEM_BOND_DEF_STEREO_COUNT>
0

> <PUBCHEM_BOND_UDEF_STEREO_COUNT>
0

> <PUBCHEM_ISOTOPIC_ATOM_COUNT>
0

> <PUBCHEM_COMPONENT_COUNT>
1

> <PUBCHEM_CACTVS_TAUTO_COUNT>
1

> <PUBCHEM_CONFORMER_ID>
02AA512100000001

> <PUBCHEM_MMFF94_ENERGY>
75.9644

> <PUBCHEM_FEATURE_SELFOVERLAP>
40.597

> <PUBCHEM_SHAPE_FINGERPRINT>
10 15 17676768777297522824
10087517 78 18413386531875323612
10291535 26 18339364170608442019
10411042 1 17615131417933898251
10595046 47 18343860022004190054
10670039 82 18412539890699713112
10835480 77 18267300014762870720
10871710 139 18342172225186561673
11045977 3 13118006620932212414
11089746 13 18059853996018565472
12107183 9 17763461712329437186
12390115 104 18338808809719950525
12507557 5 17022903462828657973
12596602 18 17385438843006420744
12788726 201 17988364759066023536
12916748 109 18411985749623696611
13073987 5 18408887300150214738
13167372 99 18412263913998241192
13288520 33 10447931676472823687
13544653 18 10592039176225053331
13673619 4 15266485387945202871
14790565 3 18337394825282434520
14931854 50 18343013372513328253
15183329 4 18335416860136483614
15348495 7 12251908118063022470
15788980 27 12247677179659552526
17844677 252 18342463586486560246
18608769 82 18337675342423909811
20281389 69 18040147436097308532
20645477 56 18113894991986134022
21033648 29 18114726201149006549
21033650 10 17916048809591482180
21236236 1 18342458114693411408
21279426 13 18197503930979175550
21756936 100 18413388735177325963
221357 26 18131625695004923937
22956985 138 16454910320455182939
23198884 109 18202565094222734550
23559900 14 18269267044821787984
2838139 119 18343581854779895124
3004659 81 12679459785586558710
312425 54 11746934291714216540
335352 9 18409167728172913014
3545911 37 18408323315463011854
392239 28 18335999648570187099
4073 2 18114465686604340762
4258327 124 17169000043503185726
5104073 3 18040998410604894546
5283173 99 18343865511526340752
531348 171 17917993845639873942
59755656 215 18409452462861054710
59755656 520 18333728039476503070
6328613 192 18261117426404129788
633830 44 18268429031877025775
636775 72 18270960267413011848
7288768 16 18041571222087856097
9953998 17 11458421358385683284

> <PUBCHEM_SHAPE_MULTIPOLES>
489.58
15.84
3.03
1.05
21.18
0.83
-0.17
7.8
-1.98
-1.97
1.19
-1.47
0.01
-0.5

> <PUBCHEM_SHAPE_SELFOVERLAP>
1051.139

> <PUBCHEM_SHAPE_VOLUME>
267.6

> <PUBCHEM_COORDINATE_TYPE>
2
5
10

$$$$
