45361469
  -OEChem-12032416353D

 78 81  0     1  0  0  0  0  0999 V2000
   -7.5832   -1.8549    1.7061 F   0  0  0  0  0  0  0  0  0  0  0  0
   -4.6726   -3.9251   -1.4031 F   0  0  0  0  0  0  0  0  0  0  0  0
    0.1311    2.5334   -1.3612 O   0  0  0  0  0  0  0  0  0  0  0  0
   -4.9168    2.6271    0.3940 O   0  0  0  0  0  0  0  0  0  0  0  0
    5.4228   -1.7827   -0.3819 O   0  0  0  0  0  0  0  0  0  0  0  0
    4.5508    0.1205    0.6354 N   0  0  0  0  0  0  0  0  0  0  0  0
   -4.2461    1.4326   -1.4777 N   0  0  0  0  0  0  0  0  0  0  0  0
    0.3252   -0.0494    1.4436 C   0  0  1  0  0  0  0  0  0  0  0  0
    0.7746    0.7567    0.1798 C   0  0  2  0  0  0  0  0  0  0  0  0
    2.3027    1.1124    0.2577 C   0  0  1  0  0  0  0  0  0  0  0  0
   -0.1780    1.9567   -0.0915 C   0  0  2  0  0  0  0  0  0  0  0  0
   -1.1518   -0.4802    1.2827 C   0  0  0  0  0  0  0  0  0  0  0  0
    1.1804   -1.3329    1.5533 C   0  0  0  0  0  0  0  0  0  0  0  0
   -1.6647    1.5347   -0.1479 C   0  0  1  0  0  0  0  0  0  0  0  0
    3.1474   -0.1795    0.4434 C   0  0  2  0  0  0  0  0  0  0  0  0
   -2.0926    0.6959    1.0562 C   0  0  0  0  0  0  0  0  0  0  0  0
    2.6754   -1.0523    1.6060 C   0  0  0  0  0  0  0  0  0  0  0  0
    0.4650    0.7701    2.7516 C   0  0  0  0  0  0  0  0  0  0  0  0
   -2.5952    2.7461   -0.2850 C   0  0  2  0  0  0  0  0  0  0  0  0
    2.8192    1.8823   -0.9696 C   0  0  0  0  0  0  0  0  0  0  0  0
   -2.4058    3.6899    0.8974 C   0  0  0  0  0  0  0  0  0  0  0  0
   -4.0432    2.2794   -0.3977 C   0  0  0  0  0  0  0  0  0  0  0  0
    5.5666   -0.7125    0.2033 C   0  0  0  0  0  0  0  0  0  0  0  0
    6.9258   -0.1522    0.5071 C   0  0  0  0  0  0  0  0  0  0  0  0
    7.9370   -1.2715    0.7636 C   0  0  0  0  0  0  0  0  0  0  0  0
    7.3651    0.7983   -0.6085 C   0  0  0  0  0  0  0  0  0  0  0  0
    8.4063   -1.9708   -0.5118 C   0  0  0  0  0  0  0  0  0  0  0  0
    7.8232    0.0689   -1.8703 C   0  0  0  0  0  0  0  0  0  0  0  0
    8.8891   -0.9760   -1.5607 C   0  0  0  0  0  0  0  0  0  0  0  0
   -5.5349    0.8595   -1.7897 C   0  0  0  0  0  0  0  0  0  0  0  0
   -5.7430   -0.4608   -1.1058 C   0  0  0  0  0  0  0  0  0  0  0  0
   -5.0974   -1.6021   -1.5813 C   0  0  0  0  0  0  0  0  0  0  0  0
   -6.5827   -0.5461    0.0048 C   0  0  0  0  0  0  0  0  0  0  0  0
   -6.7769   -1.7727    0.6398 C   0  0  0  0  0  0  0  0  0  0  0  0
   -5.2916   -2.8288   -0.9463 C   0  0  0  0  0  0  0  0  0  0  0  0
   -6.1313   -2.9140    0.1643 C   0  0  0  0  0  0  0  0  0  0  0  0
    0.6747    0.0876   -0.6900 H   0  0  0  0  0  0  0  0  0  0  0  0
    2.4705    1.7676    1.1218 H   0  0  0  0  0  0  0  0  0  0  0  0
    0.0182    2.7160    0.6672 H   0  0  0  0  0  0  0  0  0  0  0  0
   -1.4832   -1.0393    2.1672 H   0  0  0  0  0  0  0  0  0  0  0  0
   -1.2454   -1.1699    0.4329 H   0  0  0  0  0  0  0  0  0  0  0  0
    0.8925   -1.9066    2.4435 H   0  0  0  0  0  0  0  0  0  0  0  0
    0.9807   -1.9838    0.6914 H   0  0  0  0  0  0  0  0  0  0  0  0
   -1.7720    0.9007   -1.0382 H   0  0  0  0  0  0  0  0  0  0  0  0
    3.0611   -0.7753   -0.4759 H   0  0  0  0  0  0  0  0  0  0  0  0
   -2.1409    1.2768    1.9796 H   0  0  0  0  0  0  0  0  0  0  0  0
   -3.0974    0.2840    0.9073 H   0  0  0  0  0  0  0  0  0  0  0  0
    3.2148   -2.0083    1.5951 H   0  0  0  0  0  0  0  0  0  0  0  0
    2.9372   -0.5828    2.5620 H   0  0  0  0  0  0  0  0  0  0  0  0
    1.5000    1.0432    2.9727 H   0  0  0  0  0  0  0  0  0  0  0  0
    0.0980    0.1930    3.6085 H   0  0  0  0  0  0  0  0  0  0  0  0
   -0.1020    1.7046    2.7231 H   0  0  0  0  0  0  0  0  0  0  0  0
   -2.3664    3.2952   -1.2074 H   0  0  0  0  0  0  0  0  0  0  0  0
    2.5445    1.3762   -1.9008 H   0  0  0  0  0  0  0  0  0  0  0  0
    3.9088    1.9866   -0.9586 H   0  0  0  0  0  0  0  0  0  0  0  0
    2.4295    2.9039   -0.9875 H   0  0  0  0  0  0  0  0  0  0  0  0
    4.7846    0.9604    1.1570 H   0  0  0  0  0  0  0  0  0  0  0  0
    0.0146    1.8482   -2.0412 H   0  0  0  0  0  0  0  0  0  0  0  0
   -2.6378    3.2456    1.8680 H   0  0  0  0  0  0  0  0  0  0  0  0
   -3.0962    4.5373    0.7930 H   0  0  0  0  0  0  0  0  0  0  0  0
   -1.4090    4.1344    0.9374 H   0  0  0  0  0  0  0  0  0  0  0  0
    6.8472    0.4267    1.4377 H   0  0  0  0  0  0  0  0  0  0  0  0
   -3.4832    1.2350   -2.1171 H   0  0  0  0  0  0  0  0  0  0  0  0
    7.5223   -2.0164    1.4536 H   0  0  0  0  0  0  0  0  0  0  0  0
    8.8147   -0.8395    1.2620 H   0  0  0  0  0  0  0  0  0  0  0  0
    8.1989    1.4093   -0.2389 H   0  0  0  0  0  0  0  0  0  0  0  0
    6.5598    1.4955   -0.8688 H   0  0  0  0  0  0  0  0  0  0  0  0
    9.2260   -2.6552   -0.2619 H   0  0  0  0  0  0  0  0  0  0  0  0
    7.6126   -2.5947   -0.9346 H   0  0  0  0  0  0  0  0  0  0  0  0
    6.9648   -0.4131   -2.3534 H   0  0  0  0  0  0  0  0  0  0  0  0
    8.2208    0.7960   -2.5877 H   0  0  0  0  0  0  0  0  0  0  0  0
    9.7976   -0.4769   -1.2016 H   0  0  0  0  0  0  0  0  0  0  0  0
    9.1604   -1.5101   -2.4783 H   0  0  0  0  0  0  0  0  0  0  0  0
   -6.3226    1.5710   -1.5159 H   0  0  0  0  0  0  0  0  0  0  0  0
   -5.5864    0.7295   -2.8768 H   0  0  0  0  0  0  0  0  0  0  0  0
   -4.4405   -1.5480   -2.4453 H   0  0  0  0  0  0  0  0  0  0  0  0
   -7.0909    0.3350    0.3871 H   0  0  0  0  0  0  0  0  0  0  0  0
   -6.2825   -3.8690    0.6585 H   0  0  0  0  0  0  0  0  0  0  0  0
  1 34  1  0  0  0  0
  2 35  1  0  0  0  0
  3 11  1  0  0  0  0
  3 58  1  0  0  0  0
  4 22  2  0  0  0  0
  5 23  2  0  0  0  0
  6 15  1  0  0  0  0
  6 23  1  0  0  0  0
  6 57  1  0  0  0  0
  7 22  1  0  0  0  0
  7 30  1  0  0  0  0
  7 63  1  0  0  0  0
  8  9  1  0  0  0  0
  8 12  1  0  0  0  0
  8 13  1  0  0  0  0
  8 18  1  0  0  0  0
  9 10  1  0  0  0  0
  9 11  1  0  0  0  0
  9 37  1  0  0  0  0
 10 15  1  0  0  0  0
 10 20  1  0  0  0  0
 10 38  1  0  0  0  0
 11 14  1  0  0  0  0
 11 39  1  0  0  0  0
 12 16  1  0  0  0  0
 12 40  1  0  0  0  0
 12 41  1  0  0  0  0
 13 17  1  0  0  0  0
 13 42  1  0  0  0  0
 13 43  1  0  0  0  0
 14 16  1  0  0  0  0
 14 19  1  0  0  0  0
 14 44  1  0  0  0  0
 15 17  1  0  0  0  0
 15 45  1  0  0  0  0
 16 46  1  0  0  0  0
 16 47  1  0  0  0  0
 17 48  1  0  0  0  0
 17 49  1  0  0  0  0
 18 50  1  0  0  0  0
 18 51  1  0  0  0  0
 18 52  1  0  0  0  0
 19 21  1  0  0  0  0
 19 22  1  0  0  0  0
 19 53  1  0  0  0  0
 20 54  1  0  0  0  0
 20 55  1  0  0  0  0
 20 56  1  0  0  0  0
 21 59  1  0  0  0  0
 21 60  1  0  0  0  0
 21 61  1  0  0  0  0
 23 24  1  0  0  0  0
 24 25  1  0  0  0  0
 24 26  1  0  0  0  0
 24 62  1  0  0  0  0
 25 27  1  0  0  0  0
 25 64  1  0  0  0  0
 25 65  1  0  0  0  0
 26 28  1  0  0  0  0
 26 66  1  0  0  0  0
 26 67  1  0  0  0  0
 27 29  1  0  0  0  0
 27 68  1  0  0  0  0
 27 69  1  0  0  0  0
 28 29  1  0  0  0  0
 28 70  1  0  0  0  0
 28 71  1  0  0  0  0
 29 72  1  0  0  0  0
 29 73  1  0  0  0  0
 30 31  1  0  0  0  0
 30 74  1  0  0  0  0
 30 75  1  0  0  0  0
 31 32  2  0  0  0  0
 31 33  1  0  0  0  0
 32 35  1  0  0  0  0
 32 76  1  0  0  0  0
 33 34  2  0  0  0  0
 33 77  1  0  0  0  0
 34 36  1  0  0  0  0
 35 36  2  0  0  0  0
 36 78  1  0  0  0  0
M  END
> <PUBCHEM_COMPOUND_CID>
45361469

> <PUBCHEM_CONFORMER_RMSD>
1.2

> <PUBCHEM_CONFORMER_DIVERSEORDER>
1
14
31
55
111
80
189
122
198
177
114
2
199
150
112
115
140
128
151
91
47
149
65
121
30
167
79
40
165
182
209
214
144
197
133
208
125
4
100
110
205
35
61
196
211
178
34
186
136
39
109
99
97
11
191
24
58
195
43
152
134
155
86
60
163
6
92
193
104
123
32
171
118
68
184
33
108
82
146
106
212
27
38
166
180
213
158
135
53
101
161
57
84
147
137
139
44
103
132
81
194
129
7
204
85
28
176
93
66
190
10
48
116
154
96
46
202
72
36
63
203
148
131
117
71
179
120
64
162
210
90
67
21
124
45
69
3
138
173
73
200
156
127
145
13
89
87
77
130
54
62
192
153
94
159
157
59
175
26
98
23
42
15
170
181
56
142
126
8
187
102
16
188
95
17
119
5
52
12
19
185
201
113
18
50
25
160
76
168
88
51
83
49
183
29
75
169
20
105
172
141
41
207
78
22
164
206
74
70
37
9
107
143
174

> <PUBCHEM_MMFF94_PARTIAL_CHARGES>
26
1 -0.19
11 0.28
15 0.3
19 0.06
2 -0.19
22 0.57
23 0.57
24 0.06
3 -0.68
30 0.44
31 -0.14
32 -0.15
33 -0.15
34 0.19
35 0.19
36 -0.15
4 -0.57
5 -0.57
57 0.37
58 0.4
6 -0.73
63 0.37
7 -0.73
76 0.15
77 0.15
78 0.15

> <PUBCHEM_EFFECTIVE_ROTOR_COUNT>
10.8

> <PUBCHEM_PHARMACOPHORE_FEATURES>
11
1 21 hydrophobe
1 3 acceptor
1 3 donor
1 4 acceptor
1 5 acceptor
1 6 donor
1 7 donor
6 24 25 26 27 28 29 rings
6 31 32 33 34 35 36 rings
6 8 9 10 13 15 17 rings
6 8 9 11 12 14 16 rings

> <PUBCHEM_HEAVY_ATOM_COUNT>
36

> <PUBCHEM_ATOM_DEF_STEREO_COUNT>
6

> <PUBCHEM_ATOM_UDEF_STEREO_COUNT>
1

> <PUBCHEM_BOND_DEF_STEREO_COUNT>
0

> <PUBCHEM_BOND_UDEF_STEREO_COUNT>
0

> <PUBCHEM_ISOTOPIC_ATOM_COUNT>
0

> <PUBCHEM_COMPONENT_COUNT>
1

> <PUBCHEM_CACTVS_TAUTO_COUNT>
4

> <PUBCHEM_CONFORMER_ID>
02B4293D00000001

> <PUBCHEM_MMFF94_ENERGY>
85.0746

> <PUBCHEM_FEATURE_SELFOVERLAP>
55.836

> <PUBCHEM_SHAPE_FINGERPRINT>
10554248 39 16515682192285556170
11007060 377 17095527300791475864
11146851 88 8718829795450194431
11456790 92 10735870661285796414
11578821 258 13262694625251300102
117089 54 18120091947401636975
11763389 116 17917992763203367854
12082328 90 18342455902980030260
1361 4 18269270180032252766
13690498 29 18334570240182917981
13782708 43 17917423263603056456
14279260 333 18260258634054395611
14856354 85 18202560653649005085
15082195 135 17823426075107415956
15183329 4 18260536844839902723
15289351 153 8574444114612290052
15461852 350 18408891716072628598
15669420 48 13479135710055982537
17686467 74 18342729724916493408
18603816 31 16988551451661140655
21795232 338 18273213110729033537
21867018 265 18411985793127427038
22288116 15 18259987071676996110
23569943 247 17831296100435168338
23576562 1 16226344719134608550
354706 132 16588299472238851679
437795 160 18338499886678085146
44426699 300 16735826582112988563
445580 160 18272365378088566519
44802255 64 13406798826520743969
4625314 4 18340484478732187412
484989 97 18041003998209244139
49967989 163 18041284360626856258
5372103 7 12750698184535188483
54039377 194 18334299803604571035
58083652 198 14548437129496107608
6086070 43 12035737547704473389
999808 66 17703788115349707742

> <PUBCHEM_SHAPE_MULTIPOLES>
698.75
25.34
3.51
1.84
32.13
0.07
0.27
-18.04
-9.3
-6.87
-0.58
-0.08
-0.18
-0.33

> <PUBCHEM_SHAPE_SELFOVERLAP>
1465.169

> <PUBCHEM_SHAPE_VOLUME>
392.7

> <PUBCHEM_COORDINATE_TYPE>
2
5
10

$$$$
