26742298
  -OEChem-12032416223D

 50 53  0     1  0  0  0  0  0999 V2000
   -0.8817   -3.0001    2.8706 O   0  0  0  0  0  0  0  0  0  0  0  0
    2.7318   -2.0631   -0.8440 O   0  0  0  0  0  0  0  0  0  0  0  0
    3.5985    0.2485   -0.2985 O   0  0  0  0  0  0  0  0  0  0  0  0
    5.9405    2.7282    0.8123 O   0  0  0  0  0  0  0  0  0  0  0  0
    6.0949    0.4561    0.7727 O   0  0  0  0  0  0  0  0  0  0  0  0
    0.6394   -1.3964   -1.6018 N   0  0  0  0  0  0  0  0  0  0  0  0
   -1.3199   -1.8855    0.8576 N   0  0  0  0  0  0  0  0  0  0  0  0
   -1.1757   -3.0900   -1.4008 C   0  0  1  0  0  0  0  0  0  0  0  0
   -1.7332   -0.6975   -1.3194 C   0  0  2  0  0  0  0  0  0  0  0  0
   -2.1906   -2.0530   -1.8554 C   0  0  0  0  0  0  0  0  0  0  0  0
    0.2247   -2.7574   -1.9417 C   0  0  0  0  0  0  0  0  0  0  0  0
   -1.1980   -3.1545    0.1268 C   0  0  0  0  0  0  0  0  0  0  0  0
   -0.3487   -0.3537   -1.9079 C   0  0  0  0  0  0  0  0  0  0  0  0
   -1.6756   -0.6853    0.2107 C   0  0  0  0  0  0  0  0  0  0  0  0
   -1.9255    0.4305    0.9446 C   0  0  0  0  0  0  0  0  0  0  0  0
   -1.1765   -1.9760    2.2537 C   0  0  0  0  0  0  0  0  0  0  0  0
    1.9183   -1.1697   -1.0936 C   0  0  0  0  0  0  0  0  0  0  0  0
   -1.7840    0.3758    2.3872 C   0  0  0  0  0  0  0  0  0  0  0  0
   -1.4199   -0.7363    3.0252 C   0  0  0  0  0  0  0  0  0  0  0  0
   -2.3209    1.7077    0.3116 C   0  0  0  0  0  0  0  0  0  0  0  0
    2.2978    0.2663   -0.8346 C   0  0  0  0  0  0  0  0  0  0  0  0
   -1.3437    2.6189   -0.0891 C   0  0  0  0  0  0  0  0  0  0  0  0
   -3.6704    2.0005    0.1147 C   0  0  0  0  0  0  0  0  0  0  0  0
   -1.7160    3.8230   -0.6869 C   0  0  0  0  0  0  0  0  0  0  0  0
   -4.0428    3.2047   -0.4830 C   0  0  0  0  0  0  0  0  0  0  0  0
   -3.0655    4.1157   -0.8840 C   0  0  0  0  0  0  0  0  0  0  0  0
    4.0765    1.5607   -0.0078 C   0  0  0  0  0  0  0  0  0  0  0  0
    5.4660    1.4821    0.5608 C   0  0  0  0  0  0  0  0  0  0  0  0
   -1.4558   -4.0757   -1.7925 H   0  0  0  0  0  0  0  0  0  0  0  0
   -2.4526    0.0440   -1.6843 H   0  0  0  0  0  0  0  0  0  0  0  0
   -3.1928   -2.3003   -1.4835 H   0  0  0  0  0  0  0  0  0  0  0  0
   -2.2510   -2.0317   -2.9504 H   0  0  0  0  0  0  0  0  0  0  0  0
    0.9546   -3.4882   -1.5778 H   0  0  0  0  0  0  0  0  0  0  0  0
    0.2256   -2.8230   -3.0368 H   0  0  0  0  0  0  0  0  0  0  0  0
   -2.0640   -3.7557    0.4374 H   0  0  0  0  0  0  0  0  0  0  0  0
   -0.3147   -3.6895    0.4984 H   0  0  0  0  0  0  0  0  0  0  0  0
   -0.4145   -0.2978   -3.0019 H   0  0  0  0  0  0  0  0  0  0  0  0
   -0.0143    0.6265   -1.5705 H   0  0  0  0  0  0  0  0  0  0  0  0
   -1.9714    1.2813    2.9568 H   0  0  0  0  0  0  0  0  0  0  0  0
   -1.3112   -0.7664    4.1028 H   0  0  0  0  0  0  0  0  0  0  0  0
    1.6075    0.6991   -0.1039 H   0  0  0  0  0  0  0  0  0  0  0  0
    2.2812    0.8256   -1.7756 H   0  0  0  0  0  0  0  0  0  0  0  0
   -0.2880    2.4121    0.0665 H   0  0  0  0  0  0  0  0  0  0  0  0
   -4.4435    1.3000    0.4210 H   0  0  0  0  0  0  0  0  0  0  0  0
   -0.9553    4.5335   -0.9969 H   0  0  0  0  0  0  0  0  0  0  0  0
   -5.0935    3.4328   -0.6365 H   0  0  0  0  0  0  0  0  0  0  0  0
   -3.3555    5.0533   -1.3491 H   0  0  0  0  0  0  0  0  0  0  0  0
    4.1076    2.1487   -0.9311 H   0  0  0  0  0  0  0  0  0  0  0  0
    3.4211    2.0323    0.7320 H   0  0  0  0  0  0  0  0  0  0  0  0
    6.8478    2.7062    1.1844 H   0  0  0  0  0  0  0  0  0  0  0  0
  1 16  2  0  0  0  0
  2 17  2  0  0  0  0
  3 21  1  0  0  0  0
  3 27  1  0  0  0  0
  4 28  1  0  0  0  0
  4 50  1  0  0  0  0
  5 28  2  0  0  0  0
  6 11  1  0  0  0  0
  6 13  1  0  0  0  0
  6 17  1  0  0  0  0
  7 12  1  0  0  0  0
  7 14  1  0  0  0  0
  7 16  1  0  0  0  0
  8 10  1  0  0  0  0
  8 11  1  0  0  0  0
  8 12  1  0  0  0  0
  8 29  1  0  0  0  0
  9 10  1  0  0  0  0
  9 13  1  0  0  0  0
  9 14  1  0  0  0  0
  9 30  1  0  0  0  0
 10 31  1  0  0  0  0
 10 32  1  0  0  0  0
 11 33  1  0  0  0  0
 11 34  1  0  0  0  0
 12 35  1  0  0  0  0
 12 36  1  0  0  0  0
 13 37  1  0  0  0  0
 13 38  1  0  0  0  0
 14 15  2  0  0  0  0
 15 18  1  0  0  0  0
 15 20  1  0  0  0  0
 16 19  1  0  0  0  0
 17 21  1  0  0  0  0
 18 19  2  0  0  0  0
 18 39  1  0  0  0  0
 19 40  1  0  0  0  0
 20 22  2  0  0  0  0
 20 23  1  0  0  0  0
 21 41  1  0  0  0  0
 21 42  1  0  0  0  0
 22 24  1  0  0  0  0
 22 43  1  0  0  0  0
 23 25  2  0  0  0  0
 23 44  1  0  0  0  0
 24 26  2  0  0  0  0
 24 45  1  0  0  0  0
 25 26  1  0  0  0  0
 25 46  1  0  0  0  0
 26 47  1  0  0  0  0
 27 28  1  0  0  0  0
 27 48  1  0  0  0  0
 27 49  1  0  0  0  0
M  END
> <PUBCHEM_COMPOUND_CID>
26742298

> <PUBCHEM_CONFORMER_RMSD>
0.8

> <PUBCHEM_CONFORMER_DIVERSEORDER>
1
16
8
11
26
19
18
5
27
7
24
17
15
9
25
3
30
6
21
20
4
31
2
23
12
29
10
22
28
14
13

> <PUBCHEM_MMFF94_PARTIAL_CHARGES>
34
1 -0.57
11 0.3
12 0.3
13 0.3
14 -0.03
15 -0.03
16 0.62
17 0.57
18 -0.15
19 -0.14
2 -0.57
20 0.03
21 0.34
22 -0.15
23 -0.15
24 -0.15
25 -0.15
26 -0.15
27 0.34
28 0.66
3 -0.56
39 0.15
4 -0.65
40 0.15
43 0.15
44 0.15
45 0.15
46 0.15
47 0.15
5 -0.57
50 0.5
6 -0.66
7 -0.47
9 0.14

> <PUBCHEM_EFFECTIVE_ROTOR_COUNT>
7

> <PUBCHEM_PHARMACOPHORE_FEATURES>
10
1 1 acceptor
1 2 acceptor
1 3 acceptor
1 4 acceptor
1 5 acceptor
3 4 5 28 anion
6 20 22 23 24 25 26 rings
6 6 8 9 10 11 13 rings
6 7 14 15 16 18 19 rings
6 7 8 9 10 12 14 rings

> <PUBCHEM_HEAVY_ATOM_COUNT>
28

> <PUBCHEM_ATOM_DEF_STEREO_COUNT>
2

> <PUBCHEM_ATOM_UDEF_STEREO_COUNT>
0

> <PUBCHEM_BOND_DEF_STEREO_COUNT>
0

> <PUBCHEM_BOND_UDEF_STEREO_COUNT>
0

> <PUBCHEM_ISOTOPIC_ATOM_COUNT>
0

> <PUBCHEM_COMPONENT_COUNT>
1

> <PUBCHEM_CACTVS_TAUTO_COUNT>
3

> <PUBCHEM_CONFORMER_ID>
01980E1A00000001

> <PUBCHEM_MMFF94_ENERGY>
72.206

> <PUBCHEM_FEATURE_SELFOVERLAP>
52.392

> <PUBCHEM_SHAPE_FINGERPRINT>
10670039 82 18055083318451712700
10764073 3 11530753744605282277
107951 10 18260828163739004128
11399939 17 8714826529100410041
11552529 35 17605279691106529962
11582403 64 17973444304572445183
11725454 13 17900551077402258453
12156800 1 17554841690503788649
12633257 1 16732990829676195796
12788726 201 18264468736985279963
13383661 66 11016440954358834344
14142880 1 17774173421085126451
14468879 13 18411422769547586056
15513586 35 17833284382150975712
17974551 9 17461175261618049010
19930381 70 17983858874295024573
20600515 1 17199121250756912407
21304303 64 18127406968211602423
22907989 373 15051739676717261558
238 59 17768538192064287301
3380486 77 17480027826963297663
376196 1 18121500150532766509
445580 44 18125719234820892760
469060 322 17982179121175252986
484985 159 17458617973691751554
5895379 119 15963702851879034133
7288768 16 18260545580734473428
84936 182 16670237036786655721
9981440 41 18412259532456391926

> <PUBCHEM_SHAPE_MULTIPOLES>
536.92
8.13
5.1
2.47
17.48
1.63
1.75
10.94
1.25
-2.98
-1.08
-1.19
-2.22
1.85

> <PUBCHEM_SHAPE_SELFOVERLAP>
1162.161

> <PUBCHEM_SHAPE_VOLUME>
287

> <PUBCHEM_COORDINATE_TYPE>
2
5
10

$$$$
