75367666
  -OEChem-12032416403D

 45 47  0     1  0  0  0  0  0999 V2000
   -5.9245   -2.1136    0.4217 F   0  0  0  0  0  0  0  0  0  0  0  0
   -6.0967   -0.9611   -1.4074 F   0  0  0  0  0  0  0  0  0  0  0  0
   -6.5440   -0.0310    0.5064 F   0  0  0  0  0  0  0  0  0  0  0  0
    1.1697    4.1153    0.5666 O   0  0  0  0  0  0  0  0  0  0  0  0
   -0.2922    0.7556    0.4164 O   0  0  0  0  0  0  0  0  0  0  0  0
    4.3444    0.9173    0.0111 O   0  0  0  0  0  0  0  0  0  0  0  0
    2.4324    1.8927   -0.8509 N   0  0  0  0  0  0  0  0  0  0  0  0
    2.5333   -0.4404   -0.5152 N   0  0  0  0  0  0  0  0  0  0  0  0
    4.8397   -3.0749    0.6863 N   0  0  0  0  0  0  0  0  0  0  0  0
    0.0417    2.0361   -0.1177 C   0  0  2  0  0  0  0  0  0  0  0  0
    1.0252    1.8523   -1.2754 C   0  0  0  0  0  0  0  0  0  0  0  0
    3.0169    3.2345   -0.7783 C   0  0  0  0  0  0  0  0  0  0  0  0
    0.5148    2.9360    1.0242 C   0  0  0  0  0  0  0  0  0  0  0  0
    2.5888    3.9695    0.4857 C   0  0  0  0  0  0  0  0  0  0  0  0
    3.1975    0.7830   -0.4221 C   0  0  0  0  0  0  0  0  0  0  0  0
   -1.5955    0.3596    0.2880 C   0  0  0  0  0  0  0  0  0  0  0  0
   -2.6149    1.1192    0.8622 C   0  0  0  0  0  0  0  0  0  0  0  0
   -1.9047   -0.8041   -0.4160 C   0  0  0  0  0  0  0  0  0  0  0  0
    3.0267   -1.7220   -0.1665 C   0  0  0  0  0  0  0  0  0  0  0  0
   -4.2528   -0.4486    0.0279 C   0  0  0  0  0  0  0  0  0  0  0  0
   -3.9435    0.7150    0.7320 C   0  0  0  0  0  0  0  0  0  0  0  0
   -3.2333   -1.2083   -0.5461 C   0  0  0  0  0  0  0  0  0  0  0  0
   -5.6730   -0.8813   -0.1113 C   0  0  0  0  0  0  0  0  0  0  0  0
    2.2396   -2.8584   -0.3167 C   0  0  0  0  0  0  0  0  0  0  0  0
    4.3084   -1.8825    0.3348 C   0  0  0  0  0  0  0  0  0  0  0  0
    2.7511   -4.1029    0.0339 C   0  0  0  0  0  0  0  0  0  0  0  0
    4.0451   -4.1570    0.5262 C   0  0  0  0  0  0  0  0  0  0  0  0
   -0.8445    2.5073   -0.5677 H   0  0  0  0  0  0  0  0  0  0  0  0
    0.8173    0.9362   -1.8351 H   0  0  0  0  0  0  0  0  0  0  0  0
    0.8842    2.6679   -1.9960 H   0  0  0  0  0  0  0  0  0  0  0  0
    2.7082    3.7908   -1.6705 H   0  0  0  0  0  0  0  0  0  0  0  0
    4.1097    3.1663   -0.8022 H   0  0  0  0  0  0  0  0  0  0  0  0
   -0.3588    3.2598    1.6011 H   0  0  0  0  0  0  0  0  0  0  0  0
    1.1370    2.3819    1.7392 H   0  0  0  0  0  0  0  0  0  0  0  0
    2.9766    3.4822    1.3883 H   0  0  0  0  0  0  0  0  0  0  0  0
    3.0114    4.9797    0.4630 H   0  0  0  0  0  0  0  0  0  0  0  0
    1.5744   -0.4528   -0.8408 H   0  0  0  0  0  0  0  0  0  0  0  0
   -2.3927    2.0213    1.4242 H   0  0  0  0  0  0  0  0  0  0  0  0
   -1.1145   -1.3989   -0.8659 H   0  0  0  0  0  0  0  0  0  0  0  0
   -4.7224    1.3192    1.1888 H   0  0  0  0  0  0  0  0  0  0  0  0
   -3.4644   -2.1163   -1.0966 H   0  0  0  0  0  0  0  0  0  0  0  0
    1.2274   -2.7874   -0.7056 H   0  0  0  0  0  0  0  0  0  0  0  0
    5.0128   -1.0804    0.4952 H   0  0  0  0  0  0  0  0  0  0  0  0
    2.1557   -5.0022   -0.0747 H   0  0  0  0  0  0  0  0  0  0  0  0
    4.4907   -5.1035    0.8141 H   0  0  0  0  0  0  0  0  0  0  0  0
  1 23  1  0  0  0  0
  2 23  1  0  0  0  0
  3 23  1  0  0  0  0
  4 13  1  0  0  0  0
  4 14  1  0  0  0  0
  5 10  1  0  0  0  0
  5 16  1  0  0  0  0
  6 15  2  0  0  0  0
  7 11  1  0  0  0  0
  7 12  1  0  0  0  0
  7 15  1  0  0  0  0
  8 15  1  0  0  0  0
  8 19  1  0  0  0  0
  8 37  1  0  0  0  0
  9 25  1  0  0  0  0
  9 27  2  0  0  0  0
 10 11  1  0  0  0  0
 10 13  1  0  0  0  0
 10 28  1  0  0  0  0
 11 29  1  0  0  0  0
 11 30  1  0  0  0  0
 12 14  1  0  0  0  0
 12 31  1  0  0  0  0
 12 32  1  0  0  0  0
 13 33  1  0  0  0  0
 13 34  1  0  0  0  0
 14 35  1  0  0  0  0
 14 36  1  0  0  0  0
 16 17  2  0  0  0  0
 16 18  1  0  0  0  0
 17 21  1  0  0  0  0
 17 38  1  0  0  0  0
 18 22  2  0  0  0  0
 18 39  1  0  0  0  0
 19 24  1  0  0  0  0
 19 25  2  0  0  0  0
 20 21  2  0  0  0  0
 20 22  1  0  0  0  0
 20 23  1  0  0  0  0
 21 40  1  0  0  0  0
 22 41  1  0  0  0  0
 24 26  2  0  0  0  0
 24 42  1  0  0  0  0
 25 43  1  0  0  0  0
 26 27  1  0  0  0  0
 26 44  1  0  0  0  0
 27 45  1  0  0  0  0
M  END
> <PUBCHEM_COMPOUND_CID>
75367666

> <PUBCHEM_CONFORMER_RMSD>
1.2

> <PUBCHEM_CONFORMER_DIVERSEORDER>
1
43
8
50
15
31
13
41
45
64
66
63
22
9
39
56
2
7
68
32
46
65
58
3
18
69
48
47
34
16
23
44
59
26
60
51
10
70
6
53
49
52
54
11
33
55
42
30
40
27
4
67
35
24
21
62
28
19
20
25
37
29
36
12
61
14
5
17
38
57

> <PUBCHEM_MMFF94_PARTIAL_CHARGES>
36
1 -0.34
10 0.28
11 0.3
12 0.3
13 0.28
14 0.28
15 0.69
16 0.08
17 -0.15
18 -0.15
19 0.12
2 -0.34
20 -0.14
21 -0.15
22 -0.15
23 1.16
24 -0.15
25 0.16
26 -0.15
27 0.16
3 -0.34
37 0.37
38 0.15
39 0.15
4 -0.56
40 0.15
41 0.15
42 0.15
43 0.15
44 0.15
45 0.15
5 -0.36
6 -0.57
7 -0.66
8 -0.55
9 -0.62

> <PUBCHEM_EFFECTIVE_ROTOR_COUNT>
7.4

> <PUBCHEM_PHARMACOPHORE_FEATURES>
8
1 4 acceptor
1 5 acceptor
1 6 acceptor
1 8 donor
1 9 acceptor
6 16 17 18 20 21 22 rings
6 9 19 24 25 26 27 rings
7 4 7 10 11 12 13 14 rings

> <PUBCHEM_HEAVY_ATOM_COUNT>
27

> <PUBCHEM_ATOM_DEF_STEREO_COUNT>
1

> <PUBCHEM_ATOM_UDEF_STEREO_COUNT>
0

> <PUBCHEM_BOND_DEF_STEREO_COUNT>
0

> <PUBCHEM_BOND_UDEF_STEREO_COUNT>
0

> <PUBCHEM_ISOTOPIC_ATOM_COUNT>
0

> <PUBCHEM_COMPONENT_COUNT>
1

> <PUBCHEM_CACTVS_TAUTO_COUNT>
2

> <PUBCHEM_CONFORMER_ID>
047E04F200000001

> <PUBCHEM_MMFF94_ENERGY>
82.3031

> <PUBCHEM_FEATURE_SELFOVERLAP>
40.598

> <PUBCHEM_SHAPE_FINGERPRINT>
10411042 1 18265896848377672262
10622 236 17916001621261081815
1100329 8 18196089074637301116
11014199 57 18051135792059906966
11135609 149 18193810770053048757
11552529 35 17619346507922908066
11719270 70 18265329689503981096
12107183 9 18125451808819857921
12553582 1 18267878176931038734
13004483 165 18122618358506089978
13533116 47 18410858802256244337
1361 2 18410011052868990562
13785724 45 18127143969646102727
138480 1 18410576154663830056
13955234 65 18340487892840447009
14429380 30 18191309273800171570
15250474 111 18129372873443041247
15927050 60 17981608478951307094
16992752 21 18123481488663069878
1813 80 18262511490397510138
18681886 176 15983993698581949213
19026451 147 18408886205229232754
19319366 153 18125722545739933917
19427546 62 17834397104549352204
20511986 3 17703501216209603965
20645477 70 18260266394864515949
20775530 9 18266730291023472950
21285901 2 17603579750939302341
21344244 78 18271514321754946304
229767 44 17549553902852706985
23559900 14 18410006659154318011
23569914 152 17688553145819826679
314194 84 18412265056021899971
3421961 26 18410291406558082016
345986 75 18060142002970913193
4015057 19 18408039620231088459
4058900 60 18050020070951717108
444735 79 18265878191683350074
46194498 28 17676205813931816141
463206 1 18409733967048331626
484985 159 17324639986334180798
5104073 3 18272663350646194961
5309563 4 18266739087074381638
56633871 153 17836657318329941147
59682541 52 18266435734087705877
613672 6 18049983533617184606
6299153 45 18269284470000110305
7970288 3 18192148205029457378
9777508 108 17259624171693219856

> <PUBCHEM_SHAPE_MULTIPOLES>
501.28
12.46
5.64
0.96
18.81
0.65
0.1
-10.91
-0.28
-9.45
-0.8
0.19
0.29
-1.36

> <PUBCHEM_SHAPE_SELFOVERLAP>
1067.877

> <PUBCHEM_SHAPE_VOLUME>
276.7

> <PUBCHEM_COORDINATE_TYPE>
2
5
10

$$$$
