25314972
  -OEChem-12032416193D

 59 63  0     1  0  0  0  0  0999 V2000
    1.5978   -2.3597   -1.5560 O   0  0  0  0  0  0  0  0  0  0  0  0
    1.9673   -4.2621   -0.2826 O   0  0  0  0  0  0  0  0  0  0  0  0
    2.4729   -2.7864    2.1295 O   0  0  0  0  0  0  0  0  0  0  0  0
    4.6419    2.3826   -1.1078 O   0  0  0  0  0  0  0  0  0  0  0  0
   -0.4136   -1.4889    0.3260 N   0  0  0  0  0  0  0  0  0  0  0  0
    2.6228    0.0137   -0.2133 N   0  0  0  0  0  0  0  0  0  0  0  0
   -3.0606   -0.4320    0.1369 N   0  0  0  0  0  0  0  0  0  0  0  0
    0.6054   -2.4911    0.6408 C   0  0  2  0  0  0  0  0  0  0  0  0
    1.8552   -1.8249    1.2614 C   0  0  2  0  0  0  0  0  0  0  0  0
    2.9009   -1.3603    0.2183 C   0  0  1  0  0  0  0  0  0  0  0  0
    2.9283   -2.2633   -1.0362 C   0  0  1  0  0  0  0  0  0  0  0  0
    0.9875   -3.2703   -0.6315 C   0  0  1  0  0  0  0  0  0  0  0  0
    3.2159   -3.7250   -0.7445 C   0  0  0  0  0  0  0  0  0  0  0  0
   -1.1482   -1.1032    1.5368 C   0  0  0  0  0  0  0  0  0  0  0  0
   -1.3482   -2.0041   -0.6823 C   0  0  0  0  0  0  0  0  0  0  0  0
   -2.1795   -0.0140    1.2315 C   0  0  0  0  0  0  0  0  0  0  0  0
   -2.3851   -0.9445   -1.0620 C   0  0  0  0  0  0  0  0  0  0  0  0
    3.0476    0.9626    0.8013 C   0  0  0  0  0  0  0  0  0  0  0  0
   -4.3080    0.1816   -0.0231 C   0  0  0  0  0  0  0  0  0  0  0  0
    2.7705    2.3843    0.3904 C   0  0  0  0  0  0  0  0  0  0  0  0
   -4.4880    1.5083    0.3684 C   0  0  0  0  0  0  0  0  0  0  0  0
   -5.3713   -0.5334   -0.5738 C   0  0  0  0  0  0  0  0  0  0  0  0
    3.5812    3.0268   -0.5452 C   0  0  0  0  0  0  0  0  0  0  0  0
    1.6893    3.0594    0.9569 C   0  0  0  0  0  0  0  0  0  0  0  0
   -5.7315    2.1199    0.2091 C   0  0  0  0  0  0  0  0  0  0  0  0
   -6.6149    0.0780   -0.7331 C   0  0  0  0  0  0  0  0  0  0  0  0
    3.3108    4.3445   -0.9144 C   0  0  0  0  0  0  0  0  0  0  0  0
    1.4189    4.3771    0.5879 C   0  0  0  0  0  0  0  0  0  0  0  0
   -6.7949    1.4047   -0.3416 C   0  0  0  0  0  0  0  0  0  0  0  0
    2.2296    5.0197   -0.3478 C   0  0  0  0  0  0  0  0  0  0  0  0
    0.2088   -3.2310    1.3518 H   0  0  0  0  0  0  0  0  0  0  0  0
    1.5692   -1.0183    1.9383 H   0  0  0  0  0  0  0  0  0  0  0  0
    3.9091   -1.4060    0.6521 H   0  0  0  0  0  0  0  0  0  0  0  0
    3.6076   -1.8637   -1.7971 H   0  0  0  0  0  0  0  0  0  0  0  0
    0.1745   -3.8274   -1.1032 H   0  0  0  0  0  0  0  0  0  0  0  0
    3.4751   -4.2629   -1.6629 H   0  0  0  0  0  0  0  0  0  0  0  0
    4.0040   -3.8870   -0.0043 H   0  0  0  0  0  0  0  0  0  0  0  0
   -0.4780   -0.7109    2.3084 H   0  0  0  0  0  0  0  0  0  0  0  0
   -1.6620   -1.9727    1.9698 H   0  0  0  0  0  0  0  0  0  0  0  0
   -1.8610   -2.9081   -0.3269 H   0  0  0  0  0  0  0  0  0  0  0  0
   -0.8707   -2.2207   -1.6419 H   0  0  0  0  0  0  0  0  0  0  0  0
    1.6254    0.1185   -0.3994 H   0  0  0  0  0  0  0  0  0  0  0  0
   -1.6617    0.9155    0.9611 H   0  0  0  0  0  0  0  0  0  0  0  0
   -2.7576    0.1718    2.1453 H   0  0  0  0  0  0  0  0  0  0  0  0
   -3.0940   -1.3961   -1.7658 H   0  0  0  0  0  0  0  0  0  0  0  0
   -1.8998   -0.1093   -1.5842 H   0  0  0  0  0  0  0  0  0  0  0  0
    3.2214   -2.3469    2.5679 H   0  0  0  0  0  0  0  0  0  0  0  0
    4.1252    0.8664    0.9901 H   0  0  0  0  0  0  0  0  0  0  0  0
    2.5643    0.7825    1.7676 H   0  0  0  0  0  0  0  0  0  0  0  0
   -3.6790    2.0997    0.7874 H   0  0  0  0  0  0  0  0  0  0  0  0
   -5.2554   -1.5724   -0.8716 H   0  0  0  0  0  0  0  0  0  0  0  0
    1.0459    2.5711    1.6843 H   0  0  0  0  0  0  0  0  0  0  0  0
   -5.8713    3.1538    0.5109 H   0  0  0  0  0  0  0  0  0  0  0  0
   -7.4439   -0.4796   -1.1590 H   0  0  0  0  0  0  0  0  0  0  0  0
    3.9340    4.8574   -1.6420 H   0  0  0  0  0  0  0  0  0  0  0  0
    0.5764    4.9024    1.0281 H   0  0  0  0  0  0  0  0  0  0  0  0
   -7.7632    1.8808   -0.4656 H   0  0  0  0  0  0  0  0  0  0  0  0
    2.0187    6.0456   -0.6354 H   0  0  0  0  0  0  0  0  0  0  0  0
    5.0848    2.9843   -1.7306 H   0  0  0  0  0  0  0  0  0  0  0  0
  1 11  1  0  0  0  0
  1 12  1  0  0  0  0
  2 12  1  0  0  0  0
  2 13  1  0  0  0  0
  3  9  1  0  0  0  0
  3 47  1  0  0  0  0
  4 23  1  0  0  0  0
  4 59  1  0  0  0  0
  5  8  1  0  0  0  0
  5 14  1  0  0  0  0
  5 15  1  0  0  0  0
  6 10  1  0  0  0  0
  6 18  1  0  0  0  0
  6 42  1  0  0  0  0
  7 16  1  0  0  0  0
  7 17  1  0  0  0  0
  7 19  1  0  0  0  0
  8  9  1  0  0  0  0
  8 12  1  0  0  0  0
  8 31  1  0  0  0  0
  9 10  1  0  0  0  0
  9 32  1  0  0  0  0
 10 11  1  0  0  0  0
 10 33  1  0  0  0  0
 11 13  1  0  0  0  0
 11 34  1  0  0  0  0
 12 35  1  0  0  0  0
 13 36  1  0  0  0  0
 13 37  1  0  0  0  0
 14 16  1  0  0  0  0
 14 38  1  0  0  0  0
 14 39  1  0  0  0  0
 15 17  1  0  0  0  0
 15 40  1  0  0  0  0
 15 41  1  0  0  0  0
 16 43  1  0  0  0  0
 16 44  1  0  0  0  0
 17 45  1  0  0  0  0
 17 46  1  0  0  0  0
 18 20  1  0  0  0  0
 18 48  1  0  0  0  0
 18 49  1  0  0  0  0
 19 21  2  0  0  0  0
 19 22  1  0  0  0  0
 20 23  1  0  0  0  0
 20 24  2  0  0  0  0
 21 25  1  0  0  0  0
 21 50  1  0  0  0  0
 22 26  2  0  0  0  0
 22 51  1  0  0  0  0
 23 27  2  0  0  0  0
 24 28  1  0  0  0  0
 24 52  1  0  0  0  0
 25 29  2  0  0  0  0
 25 53  1  0  0  0  0
 26 29  1  0  0  0  0
 26 54  1  0  0  0  0
 27 30  1  0  0  0  0
 27 55  1  0  0  0  0
 28 30  2  0  0  0  0
 28 56  1  0  0  0  0
 29 57  1  0  0  0  0
 30 58  1  0  0  0  0
M  END
> <PUBCHEM_COMPOUND_CID>
25314972

> <PUBCHEM_CONFORMER_RMSD>
1

> <PUBCHEM_CONFORMER_DIVERSEORDER>
1
37
76
85
46
86
75
92
44
90
30
31
72
94
62
69
74
83
8
15
57
63
49
40
95
61
18
32
84
58
80
65
25
29
27
97
6
50
70
53
38
78
33
88
77
79
43
91
45
2
10
16
14
55
22
59
42
52
87
67
12
73
93
36
71
23
3
5
48
19
20
82
96
7
35
28
68
54
66
26
34
51
64
17
81
60
47
13
56
39
11
24
9
89
21
41
4

> <PUBCHEM_MMFF94_PARTIAL_CHARGES>
42
1 -0.56
10 0.27
11 0.28
12 0.56
13 0.28
14 0.27
15 0.27
16 0.37
17 0.37
18 0.41
19 0.1
2 -0.56
20 -0.14
21 -0.15
22 -0.15
23 0.08
24 -0.15
25 -0.15
26 -0.15
27 -0.15
28 -0.15
29 -0.15
3 -0.68
30 -0.15
4 -0.53
42 0.36
47 0.4
5 -0.81
50 0.15
51 0.15
52 0.15
53 0.15
54 0.15
55 0.15
56 0.15
57 0.15
58 0.15
59 0.45
6 -0.9
7 -0.84
8 0.27
9 0.28

> <PUBCHEM_EFFECTIVE_ROTOR_COUNT>
7.4

> <PUBCHEM_PHARMACOPHORE_FEATURES>
13
1 1 acceptor
1 2 acceptor
1 3 acceptor
1 3 donor
1 4 donor
1 5 cation
1 6 cation
1 6 donor
1 7 cation
6 19 21 22 25 26 29 rings
6 20 23 24 27 28 30 rings
6 5 7 14 15 16 17 rings
8 1 2 8 9 10 11 12 13 rings

> <PUBCHEM_HEAVY_ATOM_COUNT>
30

> <PUBCHEM_ATOM_DEF_STEREO_COUNT>
5

> <PUBCHEM_ATOM_UDEF_STEREO_COUNT>
0

> <PUBCHEM_BOND_DEF_STEREO_COUNT>
0

> <PUBCHEM_BOND_UDEF_STEREO_COUNT>
0

> <PUBCHEM_ISOTOPIC_ATOM_COUNT>
0

> <PUBCHEM_COMPONENT_COUNT>
1

> <PUBCHEM_CACTVS_TAUTO_COUNT>
3

> <PUBCHEM_CONFORMER_ID>
0182469C00000001

> <PUBCHEM_MMFF94_ENERGY>
103.6226

> <PUBCHEM_FEATURE_SELFOVERLAP>
66.023

> <PUBCHEM_SHAPE_FINGERPRINT>
10483366 6 18339657676674856716
10675989 125 18412830217646868801
10937287 8 18123185968140500220
11059048 146 18050289472448259253
11059845 2 17693347338434755696
11273773 38 18410857702581742588
12166972 35 18058727975599775435
12788726 201 17613446540611453666
13590594 115 17978520732124239786
1361 2 18266735977718571581
13761468 95 17038988445881121356
138480 1 18339645512478173772
13944108 23 18335985285382917333
14028597 1 17317326104149245746
14117953 113 18412260640880058740
15082195 135 18270100419096382119
151778 21 18337667628435876989
15210252 30 18339647720196625400
15400415 2 18123468551794987873
15439362 3 18339924930782793140
15664445 248 18198349463647509783
16988056 13 18338517435096999452
16992727 255 17972614440173285012
17844677 252 18270684148233378499
17980427 23 18055035927123003514
18681886 176 18270675351392036547
19301679 30 17542210273492378554
21344244 78 17828182325769288042
21857420 4 18050004389988800644
21860390 5 18341331102331465006
22149856 69 17704072885848950275
23522609 53 17774739610599125233
23559900 14 18201433619823479091
23576562 1 18342182175940336150
245318 6 17970073446735398549
3103668 31 17329438241876161764
3298306 158 18268149932217670209
34797466 226 18413109434250684703
376196 1 18190458457525290170
397830 11 18260561035208057035
4066623 53 18054803793125683038
474 4 18411979191187614691
513532 50 17989208131671041412
5265222 85 18047764980876877781
53794403 172 18409171038769817221

> <PUBCHEM_SHAPE_MULTIPOLES>
578.97
12.08
6.74
1.31
25.54
4.14
-0.28
7.75
2.76
-11.15
0.98
-0.62
-0.56
-0.66

> <PUBCHEM_SHAPE_SELFOVERLAP>
1253.607

> <PUBCHEM_SHAPE_VOLUME>
313

> <PUBCHEM_COORDINATE_TYPE>
2
5
10

$$$$
