11866295
  -OEChem-12032416153D

 60 61  0     1  0  0  0  0  0999 V2000
   -0.0336    2.4443    1.8849 O   0  0  0  0  0  0  0  0  0  0  0  0
    0.9118    4.3680   -1.0797 O   0  0  0  0  0  0  0  0  0  0  0  0
    4.3181    1.2209   -1.3689 O   0  0  0  0  0  0  0  0  0  0  0  0
   -3.0478    1.5995   -0.9875 O   0  0  0  0  0  0  0  0  0  0  0  0
    5.3932   -0.3670    2.1118 O   0  0  0  0  0  0  0  0  0  0  0  0
   -1.2001    0.7056    0.0764 N   0  0  0  0  0  0  0  0  0  0  0  0
    3.5163   -0.3945    0.1094 N   0  0  0  0  0  0  0  0  0  0  0  0
   -3.2378   -0.3161    0.3560 N   0  0  0  0  0  0  0  0  0  0  0  0
    6.9530   -1.1361    0.6118 N   0  0  0  0  0  0  0  0  0  0  0  0
   -0.1424    2.8894    0.5311 C   0  0  1  0  0  0  0  0  0  0  0  0
    1.0782    3.7559    0.1976 C   0  0  1  0  0  0  0  0  0  0  0  0
   -0.2439    1.6714   -0.4070 C   0  0  1  0  0  0  0  0  0  0  0  0
    2.3874    2.9486    0.2292 C   0  0  0  0  0  0  0  0  0  0  0  0
    2.2464    1.5622   -0.3322 C   0  0  0  0  0  0  0  0  0  0  0  0
    1.0745    0.9810   -0.6298 C   0  0  0  0  0  0  0  0  0  0  0  0
    4.6170   -1.3176    0.0132 C   0  0  2  0  0  0  0  0  0  0  0  0
    3.4681    0.7958   -0.5942 C   0  0  0  0  0  0  0  0  0  0  0  0
    4.1898   -2.7635    0.2956 C   0  0  0  0  0  0  0  0  0  0  0  0
    3.0765   -3.3010   -0.6267 C   0  0  0  0  0  0  0  0  0  0  0  0
   -2.5594    0.7413   -0.2563 C   0  0  0  0  0  0  0  0  0  0  0  0
    3.4837   -3.2877   -2.1006 C   0  0  0  0  0  0  0  0  0  0  0  0
    2.7021   -4.7256   -0.2082 C   0  0  0  0  0  0  0  0  0  0  0  0
    5.6642   -0.8701    1.0241 C   0  0  0  0  0  0  0  0  0  0  0  0
   -4.6146   -0.6290    0.2717 C   0  0  0  0  0  0  0  0  0  0  0  0
   -5.1220   -1.7327    0.9574 C   0  0  0  0  0  0  0  0  0  0  0  0
   -5.4649    0.1658   -0.4970 C   0  0  0  0  0  0  0  0  0  0  0  0
   -6.4796   -2.0415    0.8743 C   0  0  0  0  0  0  0  0  0  0  0  0
   -6.8226   -0.1431   -0.5800 C   0  0  0  0  0  0  0  0  0  0  0  0
   -7.3300   -1.2466    0.1057 C   0  0  0  0  0  0  0  0  0  0  0  0
   -8.7816   -1.5772    0.0180 C   0  0  0  0  0  0  0  0  0  0  0  0
   -1.0645    3.4778    0.4496 H   0  0  0  0  0  0  0  0  0  0  0  0
    1.1597    4.5685    0.9299 H   0  0  0  0  0  0  0  0  0  0  0  0
   -0.5866    2.0194   -1.3903 H   0  0  0  0  0  0  0  0  0  0  0  0
    3.1664    3.4904   -0.3204 H   0  0  0  0  0  0  0  0  0  0  0  0
    2.7235    2.8536    1.2695 H   0  0  0  0  0  0  0  0  0  0  0  0
    1.0482   -0.0108   -1.0768 H   0  0  0  0  0  0  0  0  0  0  0  0
    5.0484   -1.2368   -0.9912 H   0  0  0  0  0  0  0  0  0  0  0  0
   -0.8850   -0.0047    0.7310 H   0  0  0  0  0  0  0  0  0  0  0  0
    3.8459   -2.8369    1.3369 H   0  0  0  0  0  0  0  0  0  0  0  0
    5.0698   -3.4168    0.2247 H   0  0  0  0  0  0  0  0  0  0  0  0
    2.1811   -2.6776   -0.5122 H   0  0  0  0  0  0  0  0  0  0  0  0
    2.7806   -0.6077    0.7778 H   0  0  0  0  0  0  0  0  0  0  0  0
   -0.0012    3.2344    2.4508 H   0  0  0  0  0  0  0  0  0  0  0  0
    1.6817    4.9415   -1.2339 H   0  0  0  0  0  0  0  0  0  0  0  0
    2.7071   -3.7467   -2.7221 H   0  0  0  0  0  0  0  0  0  0  0  0
    3.6259   -2.2660   -2.4655 H   0  0  0  0  0  0  0  0  0  0  0  0
    4.4151   -3.8412   -2.2602 H   0  0  0  0  0  0  0  0  0  0  0  0
    2.3707   -4.7501    0.8353 H   0  0  0  0  0  0  0  0  0  0  0  0
    1.8837   -5.1104   -0.8261 H   0  0  0  0  0  0  0  0  0  0  0  0
    3.5534   -5.4072   -0.3104 H   0  0  0  0  0  0  0  0  0  0  0  0
   -2.6820   -0.9417    0.9337 H   0  0  0  0  0  0  0  0  0  0  0  0
    7.7463   -0.9001    1.1988 H   0  0  0  0  0  0  0  0  0  0  0  0
    7.1615   -1.5733   -0.2801 H   0  0  0  0  0  0  0  0  0  0  0  0
   -4.4702   -2.3600    1.5602 H   0  0  0  0  0  0  0  0  0  0  0  0
   -5.1473    1.0351   -1.0552 H   0  0  0  0  0  0  0  0  0  0  0  0
   -6.8634   -2.9029    1.4146 H   0  0  0  0  0  0  0  0  0  0  0  0
   -7.4765    0.4841   -1.1804 H   0  0  0  0  0  0  0  0  0  0  0  0
   -9.3307   -1.0729    0.8192 H   0  0  0  0  0  0  0  0  0  0  0  0
   -9.2007   -1.2653   -0.9447 H   0  0  0  0  0  0  0  0  0  0  0  0
   -8.9468   -2.6566    0.1043 H   0  0  0  0  0  0  0  0  0  0  0  0
  1 10  1  0  0  0  0
  1 43  1  0  0  0  0
  2 11  1  0  0  0  0
  2 44  1  0  0  0  0
  3 17  2  0  0  0  0
  4 20  2  0  0  0  0
  5 23  2  0  0  0  0
  6 12  1  0  0  0  0
  6 20  1  0  0  0  0
  6 38  1  0  0  0  0
  7 16  1  0  0  0  0
  7 17  1  0  0  0  0
  7 42  1  0  0  0  0
  8 20  1  0  0  0  0
  8 24  1  0  0  0  0
  8 51  1  0  0  0  0
  9 23  1  0  0  0  0
  9 52  1  0  0  0  0
  9 53  1  0  0  0  0
 10 11  1  0  0  0  0
 10 12  1  0  0  0  0
 10 31  1  0  0  0  0
 11 13  1  0  0  0  0
 11 32  1  0  0  0  0
 12 15  1  0  0  0  0
 12 33  1  0  0  0  0
 13 14  1  0  0  0  0
 13 34  1  0  0  0  0
 13 35  1  0  0  0  0
 14 15  2  0  0  0  0
 14 17  1  0  0  0  0
 15 36  1  0  0  0  0
 16 18  1  0  0  0  0
 16 23  1  0  0  0  0
 16 37  1  0  0  0  0
 18 19  1  0  0  0  0
 18 39  1  0  0  0  0
 18 40  1  0  0  0  0
 19 21  1  0  0  0  0
 19 22  1  0  0  0  0
 19 41  1  0  0  0  0
 21 45  1  0  0  0  0
 21 46  1  0  0  0  0
 21 47  1  0  0  0  0
 22 48  1  0  0  0  0
 22 49  1  0  0  0  0
 22 50  1  0  0  0  0
 24 25  2  0  0  0  0
 24 26  1  0  0  0  0
 25 27  1  0  0  0  0
 25 54  1  0  0  0  0
 26 28  2  0  0  0  0
 26 55  1  0  0  0  0
 27 29  2  0  0  0  0
 27 56  1  0  0  0  0
 28 29  1  0  0  0  0
 28 57  1  0  0  0  0
 29 30  1  0  0  0  0
 30 58  1  0  0  0  0
 30 59  1  0  0  0  0
 30 60  1  0  0  0  0
M  END
> <PUBCHEM_COMPOUND_CID>
11866295

> <PUBCHEM_CONFORMER_RMSD>
1

> <PUBCHEM_CONFORMER_DIVERSEORDER>
1
144
130
38
106
143
122
74
185
45
149
138
158
148
182
94
79
99
134
154
44
164
142
145
81
160
152
82
136
105
13
178
69
125
159
186
126
98
101
76
83
59
163
78
176
97
85
30
184
114
183
15
169
132
189
131
41
48
117
32
26
112
133
31
165
19
188
139
39
192
121
161
66
109
173
157
6
167
21
37
140
102
115
127
77
162
146
123
7
181
27
42
22
64
107
191
3
17
92
111
100
14
40
50
9
49
16
118
29
166
52
24
90
54
67
11
61
56
153
87
104
57
177
168
34
180
129
110
147
2
190
46
116
128
60
151
84
174
68
86
108
12
137
55
70
156
120
62
58
175
8
51
124
65
75
150
93
179
141
33
155
43
18
35
71
113
53
4
95
72
36
10
171
103
91
135
23
20
88
80
47
187
119
63
170
96
5
172
25
28
73
193
89

> <PUBCHEM_MMFF94_PARTIAL_CHARGES>
38
1 -0.68
10 0.28
11 0.28
12 0.44
13 0.14
14 -0.12
15 -0.29
16 0.36
17 0.62
2 -0.68
20 0.69
23 0.57
24 0.12
25 -0.15
26 -0.15
27 -0.15
28 -0.15
29 -0.14
3 -0.57
30 0.14
36 0.15
38 0.37
4 -0.57
42 0.37
43 0.4
44 0.4
5 -0.57
51 0.37
52 0.37
53 0.37
54 0.15
55 0.15
56 0.15
57 0.15
6 -0.73
7 -0.73
8 -0.55
9 -0.8

> <PUBCHEM_EFFECTIVE_ROTOR_COUNT>
10.8

> <PUBCHEM_PHARMACOPHORE_FEATURES>
14
1 1 acceptor
1 1 donor
1 2 acceptor
1 2 donor
1 3 acceptor
1 4 acceptor
1 5 acceptor
1 6 donor
1 7 donor
1 8 donor
1 9 donor
3 19 21 22 hydrophobe
6 10 11 12 13 14 15 rings
6 24 25 26 27 28 29 rings

> <PUBCHEM_HEAVY_ATOM_COUNT>
30

> <PUBCHEM_ATOM_DEF_STEREO_COUNT>
4

> <PUBCHEM_ATOM_UDEF_STEREO_COUNT>
0

> <PUBCHEM_BOND_DEF_STEREO_COUNT>
0

> <PUBCHEM_BOND_UDEF_STEREO_COUNT>
0

> <PUBCHEM_ISOTOPIC_ATOM_COUNT>
0

> <PUBCHEM_COMPONENT_COUNT>
1

> <PUBCHEM_CACTVS_TAUTO_COUNT>
12

> <PUBCHEM_CONFORMER_ID>
00B510B700000001

> <PUBCHEM_MMFF94_ENERGY>
65.864

> <PUBCHEM_FEATURE_SELFOVERLAP>
71.107

> <PUBCHEM_SHAPE_FINGERPRINT>
10 15 12031792483405452637
10258939 38 18040980844532155456
10917259 128 16916239746389242137
117089 54 18268157452352516894
11796584 16 18042114371656759149
11828532 37 17749680704813846275
12107183 9 18198357165299253753
12202916 173 18260263058303201570
12758862 65 18410284840080822810
13533116 47 18341617057565739617
1361 2 18412266120937023147
13782708 43 18187645843105853091
13955234 65 18053103105946070057
13989917 61 18411705426005053471
14251740 57 18058741203835595638
15183329 4 17386001763380094523
15927050 60 17764308745191077212
17492 89 18123189000936368742
19301679 30 18270120106630075351
1979834 28 18060137630989864438
20567600 70 18407758148974260602
21033650 10 16153698779513633325
21133410 58 18335413612894165083
21197605 99 18411418423558127714
23559900 14 18115304626713613717
3004659 81 17967252001097673000
3421961 26 18411136969512668336
345986 75 17703796894648281673
439807 62 18040151825316488627
4461854 278 17989207062304209398
46194498 28 17604148228526339221
5309563 4 18268717116903356926
9831232 110 18407760344425332935

> <PUBCHEM_SHAPE_MULTIPOLES>
568.12
19.58
5.18
1.27
34.5
0.25
0.07
17.26
2.93
-6.42
-0.88
-1.29
0.19
1.07

> <PUBCHEM_SHAPE_SELFOVERLAP>
1173.431

> <PUBCHEM_SHAPE_VOLUME>
322.7

> <PUBCHEM_COORDINATE_TYPE>
2
5
10

$$$$
