75368597
  -OEChem-12032416393D

 53 56  0     1  0  0  0  0  0999 V2000
    3.1443    2.6902    0.4508 O   0  0  0  0  0  0  0  0  0  0  0  0
   -7.0801   -1.6797   -1.0463 O   0  0  0  0  0  0  0  0  0  0  0  0
   -1.5348    0.8011   -0.0968 N   0  0  2  0  0  0  0  0  0  0  0  0
    1.0965    1.7818   -0.2564 N   0  0  0  0  0  0  0  0  0  0  0  0
    2.9926    0.8770   -1.0503 N   0  0  0  0  0  0  0  0  0  0  0  0
   -5.4110   -0.8284    0.3275 N   0  0  0  0  0  0  0  0  0  0  0  0
    5.0656   -1.7209   -0.8386 N   0  0  0  0  0  0  0  0  0  0  0  0
    0.6530    0.8002   -1.2242 C   0  0  2  0  0  0  0  0  0  0  0  0
   -2.6344   -0.0134    0.4146 C   0  0  0  0  0  0  0  0  0  0  0  0
   -0.4631   -0.0614   -0.6347 C   0  0  0  0  0  0  0  0  0  0  0  0
   -1.0147    1.6877    0.9638 C   0  0  0  0  0  0  0  0  0  0  0  0
    0.1130    2.5822    0.4429 C   0  0  0  0  0  0  0  0  0  0  0  0
    1.9295    0.0412   -1.5814 C   0  0  0  0  0  0  0  0  0  0  0  0
   -3.7537    0.8894    0.9498 C   0  0  0  0  0  0  0  0  0  0  0  0
   -3.1690   -0.9312   -0.6922 C   0  0  0  0  0  0  0  0  0  0  0  0
    2.4928    1.8881   -0.2051 C   0  0  0  0  0  0  0  0  0  0  0  0
   -4.9559    0.0613    1.4032 C   0  0  0  0  0  0  0  0  0  0  0  0
   -4.3816   -1.7228   -0.2059 C   0  0  0  0  0  0  0  0  0  0  0  0
    4.3892    0.5722   -1.2696 C   0  0  0  0  0  0  0  0  0  0  0  0
   -6.7137   -0.8974   -0.1655 C   0  0  0  0  0  0  0  0  0  0  0  0
    4.8891   -0.4827   -0.3254 C   0  0  0  0  0  0  0  0  0  0  0  0
   -7.7143    0.0585    0.4332 C   0  0  0  0  0  0  0  0  0  0  0  0
    5.1411   -0.1471    0.9951 C   0  0  0  0  0  0  0  0  0  0  0  0
    5.6043   -1.1466    1.8434 C   0  0  0  0  0  0  0  0  0  0  0  0
    5.5169   -2.6663    0.0159 C   0  0  0  0  0  0  0  0  0  0  0  0
    5.7986   -2.4329    1.3523 C   0  0  0  0  0  0  0  0  0  0  0  0
    0.2891    1.3555   -2.0989 H   0  0  0  0  0  0  0  0  0  0  0  0
   -2.2795   -0.6460    1.2416 H   0  0  0  0  0  0  0  0  0  0  0  0
   -0.8015   -0.6882   -1.4634 H   0  0  0  0  0  0  0  0  0  0  0  0
   -0.0701   -0.7187    0.1525 H   0  0  0  0  0  0  0  0  0  0  0  0
   -0.6495    1.0957    1.8133 H   0  0  0  0  0  0  0  0  0  0  0  0
   -1.7705    2.3836    1.3359 H   0  0  0  0  0  0  0  0  0  0  0  0
    0.5977    3.1268    1.2594 H   0  0  0  0  0  0  0  0  0  0  0  0
   -0.2751    3.3169   -0.2721 H   0  0  0  0  0  0  0  0  0  0  0  0
    1.9859   -0.9403   -1.0994 H   0  0  0  0  0  0  0  0  0  0  0  0
    2.0481   -0.0751   -2.6628 H   0  0  0  0  0  0  0  0  0  0  0  0
   -4.0742    1.5982    0.1750 H   0  0  0  0  0  0  0  0  0  0  0  0
   -3.4446    1.4660    1.8263 H   0  0  0  0  0  0  0  0  0  0  0  0
   -2.4368   -1.6799   -1.0080 H   0  0  0  0  0  0  0  0  0  0  0  0
   -3.4514   -0.3406   -1.5737 H   0  0  0  0  0  0  0  0  0  0  0  0
   -4.6830   -0.5749    2.2538 H   0  0  0  0  0  0  0  0  0  0  0  0
   -5.7485    0.7300    1.7436 H   0  0  0  0  0  0  0  0  0  0  0  0
   -4.7794   -2.3294   -1.0257 H   0  0  0  0  0  0  0  0  0  0  0  0
   -4.0955   -2.4092    0.6001 H   0  0  0  0  0  0  0  0  0  0  0  0
    4.9766    1.4874   -1.1298 H   0  0  0  0  0  0  0  0  0  0  0  0
    4.5160    0.2580   -2.3117 H   0  0  0  0  0  0  0  0  0  0  0  0
   -7.4033    1.0915    0.2560 H   0  0  0  0  0  0  0  0  0  0  0  0
   -7.8253   -0.1316    1.5040 H   0  0  0  0  0  0  0  0  0  0  0  0
   -8.6889   -0.0900   -0.0421 H   0  0  0  0  0  0  0  0  0  0  0  0
    4.9947    0.8591    1.3713 H   0  0  0  0  0  0  0  0  0  0  0  0
    5.8150   -0.9234    2.8850 H   0  0  0  0  0  0  0  0  0  0  0  0
    5.6516   -3.6524   -0.4161 H   0  0  0  0  0  0  0  0  0  0  0  0
    6.1592   -3.2276    1.9953 H   0  0  0  0  0  0  0  0  0  0  0  0
  1 16  2  0  0  0  0
  2 20  2  0  0  0  0
  3  9  1  0  0  0  0
  3 10  1  0  0  0  0
  3 11  1  0  0  0  0
  4  8  1  0  0  0  0
  4 12  1  0  0  0  0
  4 16  1  0  0  0  0
  5 13  1  0  0  0  0
  5 16  1  0  0  0  0
  5 19  1  0  0  0  0
  6 17  1  0  0  0  0
  6 18  1  0  0  0  0
  6 20  1  0  0  0  0
  7 21  1  0  0  0  0
  7 25  2  0  0  0  0
  8 10  1  0  0  0  0
  8 13  1  0  0  0  0
  8 27  1  0  0  0  0
  9 14  1  0  0  0  0
  9 15  1  0  0  0  0
  9 28  1  0  0  0  0
 10 29  1  0  0  0  0
 10 30  1  0  0  0  0
 11 12  1  0  0  0  0
 11 31  1  0  0  0  0
 11 32  1  0  0  0  0
 12 33  1  0  0  0  0
 12 34  1  0  0  0  0
 13 35  1  0  0  0  0
 13 36  1  0  0  0  0
 14 17  1  0  0  0  0
 14 37  1  0  0  0  0
 14 38  1  0  0  0  0
 15 18  1  0  0  0  0
 15 39  1  0  0  0  0
 15 40  1  0  0  0  0
 17 41  1  0  0  0  0
 17 42  1  0  0  0  0
 18 43  1  0  0  0  0
 18 44  1  0  0  0  0
 19 21  1  0  0  0  0
 19 45  1  0  0  0  0
 19 46  1  0  0  0  0
 20 22  1  0  0  0  0
 21 23  2  0  0  0  0
 22 47  1  0  0  0  0
 22 48  1  0  0  0  0
 22 49  1  0  0  0  0
 23 24  1  0  0  0  0
 23 50  1  0  0  0  0
 24 26  2  0  0  0  0
 24 51  1  0  0  0  0
 25 26  1  0  0  0  0
 25 52  1  0  0  0  0
 26 53  1  0  0  0  0
M  END
> <PUBCHEM_COMPOUND_CID>
75368597

> <PUBCHEM_CONFORMER_RMSD>
0.8

> <PUBCHEM_CONFORMER_DIVERSEORDER>
1
168
84
197
228
140
231
86
172
141
53
109
204
103
127
240
207
114
61
54
210
138
58
30
23
206
135
126
186
106
9
139
41
182
192
217
156
117
163
219
82
83
65
181
201
195
80
5
81
121
19
94
108
184
7
226
69
212
241
171
238
142
216
177
42
153
113
214
124
12
229
34
87
227
104
98
93
162
26
47
4
27
40
57
131
185
230
222
232
158
187
10
176
180
190
73
22
170
151
169
6
196
89
91
233
24
234
202
225
33
116
50
198
223
159
39
128
60
45
188
164
213
129
29
3
36
78
237
167
146
160
64
155
63
59
13
46
147
215
110
102
100
92
71
37
137
132
99
157
51
48
14
105
16
18
76
200
52
133
149
211
28
72
224
112
236
56
235
15
66
189
96
35
90
173
179
144
119
77
107
218
221
31
55
174
101
183
44
70
130
122
111
220
25
120
95
68
161
143
8
199
203
2
193
175
152
205
97
125
118
191
74
17
38
165
209
115
85
67
20
75
208
166
194
79
154
11
239
150
145
88
49
148
62
43
134
32
21
178
136
123

> <PUBCHEM_MMFF94_PARTIAL_CHARGES>
28
1 -0.57
10 0.27
11 0.27
12 0.3
13 0.3
16 0.69
17 0.3
18 0.3
19 0.44
2 -0.57
20 0.57
21 0.17
22 0.06
23 -0.15
24 -0.15
25 0.16
26 -0.15
3 -0.81
4 -0.66
5 -0.66
50 0.15
51 0.15
52 0.15
53 0.15
6 -0.66
7 -0.62
8 0.3
9 0.27

> <PUBCHEM_EFFECTIVE_ROTOR_COUNT>
6.4

> <PUBCHEM_PHARMACOPHORE_FEATURES>
8
1 1 acceptor
1 2 acceptor
1 3 cation
1 7 acceptor
5 4 5 8 13 16 rings
6 3 4 8 10 11 12 rings
6 6 9 14 15 17 18 rings
6 7 21 23 24 25 26 rings

> <PUBCHEM_HEAVY_ATOM_COUNT>
26

> <PUBCHEM_ATOM_DEF_STEREO_COUNT>
1

> <PUBCHEM_ATOM_UDEF_STEREO_COUNT>
0

> <PUBCHEM_BOND_DEF_STEREO_COUNT>
0

> <PUBCHEM_BOND_UDEF_STEREO_COUNT>
0

> <PUBCHEM_ISOTOPIC_ATOM_COUNT>
0

> <PUBCHEM_COMPONENT_COUNT>
1

> <PUBCHEM_CACTVS_TAUTO_COUNT>
1

> <PUBCHEM_CONFORMER_ID>
047E089500000001

> <PUBCHEM_MMFF94_ENERGY>
58.4075

> <PUBCHEM_FEATURE_SELFOVERLAP>
40.693

> <PUBCHEM_SHAPE_FINGERPRINT>
10 15 16128651963838985786
10319926 262 17559683837034173728
10638233 991 9079114453903303967
10753850 27 18114178618730559586
11719270 70 17846503625566893575
11796584 16 17313387884618865227
12422481 6 17703794673970529588
125118 31 12535361077627636035
13533116 47 18335422383031851216
13782708 43 18186799193124426639
13885169 86 10447633717074274482
13911852 28 18335701577375938674
13914758 101 18334294237326656557
14251752 14 18187362113287363989
14251764 75 12965690215018791370
14347332 77 18334574616443479397
14347424 109 18343298184658418472
14461889 52 13830125131087869901
14537116 161 13551186697601538919
14565420 104 17772178980709029256
14848178 5 18187078421949311826
15001296 14 18261387909641710130
15119646 104 18335986393779176899
15183329 4 18411145748831457615
15188451 53 18336823105106125546
15475509 35 18408595960145023202
17857418 61 18410576197260244095
1813 80 18040440967052682580
1979834 28 17346323670057355982
20028762 73 18343022168633178950
20567600 234 15338834287353523683
21315764 119 16732702748950158195
21344244 78 18060412522061454736
21641784 216 12685079372283954447
21792934 111 17775288240830777809
22061861 79 16805324396299677130
22079108 93 14405185062353630636
2215653 11 16587745334524087123
23081809 10 18337685182420675573
23522609 53 18048916014953428813
23559900 14 17749394831805869793
23569943 247 18113894915157096243
23929065 36 17060062480940412585
29717793 49 16950285121717895948
3004659 81 18271256000725804276
3014965 18 18260265261309414247
3411729 13 17773311451831282512
3472631 163 9006764407083716746
34797466 226 15357984507065174612
3680242 22 18341903990776249762
3729539 64 16878219766843090635
3886686 26 17193205461656149522
397830 11 13757783876035201615
4072396 5 17846221072231365109
4073 2 18119815969248776960
437795 160 16128655276693828247
4625314 4 10735890456494618289
474113 269 18340477877493807319
5085150 59 17918274243170883759
5104073 3 17988093300053078961
513202 73 17968096378915397677
531348 171 18333446535484073639
59682541 52 15140678055986890226
59755656 215 14634864250025178483
6438161 24 18114455721320027227
8988823 20 18409448124527438556
960060 61 15719401607810753166

> <PUBCHEM_SHAPE_MULTIPOLES>
498.42
19.18
2.55
1.41
17.57
0.2
-0.11
-14.02
-3.24
-3.01
-0.37
-1.13
-0.16
-1.88

> <PUBCHEM_SHAPE_SELFOVERLAP>
1052.305

> <PUBCHEM_SHAPE_VOLUME>
278.5

> <PUBCHEM_COORDINATE_TYPE>
2
5
10

$$$$
