26742127
  -OEChem-12032416183D

 65 68  0     1  0  0  0  0  0999 V2000
    1.8443   -3.8696   -0.2061 F   0  0  0  0  0  0  0  0  0  0  0  0
   -4.1422    2.8638   -2.1934 O   0  0  0  0  0  0  0  0  0  0  0  0
   -4.5780   -2.6919   -0.1440 O   0  0  0  0  0  0  0  0  0  0  0  0
   -2.1633    2.9700    1.7262 O   0  0  0  0  0  0  0  0  0  0  0  0
    3.7260    0.9913    0.5268 O   0  0  0  0  0  0  0  0  0  0  0  0
    7.6434   -0.7701   -0.4945 O   0  0  0  0  0  0  0  0  0  0  0  0
   -5.0784   -0.5031    0.4063 N   0  0  0  0  0  0  0  0  0  0  0  0
   -2.5863    1.5138   -0.0271 N   0  0  0  0  0  0  0  0  0  0  0  0
   -2.9936   -1.4416    1.0061 N   0  0  0  0  0  0  0  0  0  0  0  0
    7.9382    0.5867   -0.4408 N   0  0  0  0  0  0  0  0  0  0  0  0
   -4.0193    1.7303   -0.0785 C   0  0  1  0  0  0  0  0  0  0  0  0
   -4.4875    1.6334   -1.5422 C   0  0  1  0  0  0  0  0  0  0  0  0
   -5.9909    1.4241   -1.7477 C   0  0  0  0  0  0  0  0  0  0  0  0
   -4.7384    0.8264    0.9309 C   0  0  0  0  0  0  0  0  0  0  0  0
   -6.4190   -0.0411   -1.6377 C   0  0  0  0  0  0  0  0  0  0  0  0
   -6.3980   -0.6006   -0.2205 C   0  0  0  0  0  0  0  0  0  0  0  0
   -4.2282   -1.6351    0.3872 C   0  0  0  0  0  0  0  0  0  0  0  0
   -1.7757    2.1635    0.8849 C   0  0  0  0  0  0  0  0  0  0  0  0
   -0.3260    1.8530    0.7909 C   0  0  0  0  0  0  0  0  0  0  0  0
   -1.7568   -2.0621    0.6961 C   0  0  0  0  0  0  0  0  0  0  0  0
    0.4856    1.9639    1.9200 C   0  0  0  0  0  0  0  0  0  0  0  0
    0.2241    1.4526   -0.4268 C   0  0  0  0  0  0  0  0  0  0  0  0
    1.8471    1.6745    1.8314 C   0  0  0  0  0  0  0  0  0  0  0  0
    1.5858    1.1633   -0.5155 C   0  0  0  0  0  0  0  0  0  0  0  0
   -0.6135   -1.7433    1.4288 C   0  0  0  0  0  0  0  0  0  0  0  0
   -1.6835   -2.9914   -0.3415 C   0  0  0  0  0  0  0  0  0  0  0  0
    2.3972    1.2743    0.6136 C   0  0  0  0  0  0  0  0  0  0  0  0
    0.6030   -2.3535    1.1239 C   0  0  0  0  0  0  0  0  0  0  0  0
   -0.4669   -3.6018   -0.6466 C   0  0  0  0  0  0  0  0  0  0  0  0
    4.2215    0.5879   -0.7490 C   0  0  0  0  0  0  0  0  0  0  0  0
    0.6763   -3.2828    0.0861 C   0  0  0  0  0  0  0  0  0  0  0  0
    5.6881    0.2922   -0.6338 C   0  0  0  0  0  0  0  0  0  0  0  0
    6.3005   -0.9328   -0.6094 C   0  0  0  0  0  0  0  0  0  0  0  0
    6.7547    1.2011   -0.5257 C   0  0  0  0  0  0  0  0  0  0  0  0
    5.8149   -2.3174   -0.6795 C   0  0  0  0  0  0  0  0  0  0  0  0
    6.6950    2.6722   -0.4988 C   0  0  0  0  0  0  0  0  0  0  0  0
   -4.1785    2.7631    0.2611 H   0  0  0  0  0  0  0  0  0  0  0  0
   -3.9360    0.8423   -2.0660 H   0  0  0  0  0  0  0  0  0  0  0  0
   -6.2658    1.7709   -2.7527 H   0  0  0  0  0  0  0  0  0  0  0  0
   -6.5664    2.0526   -1.0569 H   0  0  0  0  0  0  0  0  0  0  0  0
   -5.6750    1.3103    1.2357 H   0  0  0  0  0  0  0  0  0  0  0  0
   -4.1603    0.7274    1.8543 H   0  0  0  0  0  0  0  0  0  0  0  0
   -5.7839   -0.6561   -2.2875 H   0  0  0  0  0  0  0  0  0  0  0  0
   -7.4413   -0.1338   -2.0245 H   0  0  0  0  0  0  0  0  0  0  0  0
   -6.7124   -1.6498   -0.2537 H   0  0  0  0  0  0  0  0  0  0  0  0
   -7.1281   -0.0824    0.4120 H   0  0  0  0  0  0  0  0  0  0  0  0
   -2.2077    0.7775   -0.6140 H   0  0  0  0  0  0  0  0  0  0  0  0
   -4.3181    2.7538   -3.1434 H   0  0  0  0  0  0  0  0  0  0  0  0
   -2.9309   -0.7350    1.7308 H   0  0  0  0  0  0  0  0  0  0  0  0
    0.0742    2.2692    2.8784 H   0  0  0  0  0  0  0  0  0  0  0  0
   -0.3677    1.3827   -1.3349 H   0  0  0  0  0  0  0  0  0  0  0  0
    2.4743    1.7610    2.7144 H   0  0  0  0  0  0  0  0  0  0  0  0
    1.9456    0.8670   -1.4947 H   0  0  0  0  0  0  0  0  0  0  0  0
   -0.6588   -1.0270    2.2447 H   0  0  0  0  0  0  0  0  0  0  0  0
   -2.5306   -3.2601   -0.9604 H   0  0  0  0  0  0  0  0  0  0  0  0
    1.4933   -2.1057    1.6943 H   0  0  0  0  0  0  0  0  0  0  0  0
   -0.4073   -4.3214   -1.4577 H   0  0  0  0  0  0  0  0  0  0  0  0
    4.0940    1.3922   -1.4848 H   0  0  0  0  0  0  0  0  0  0  0  0
    3.7120   -0.3219   -1.0913 H   0  0  0  0  0  0  0  0  0  0  0  0
    5.5305   -2.5702   -1.7055 H   0  0  0  0  0  0  0  0  0  0  0  0
    6.5817   -3.0275   -0.3543 H   0  0  0  0  0  0  0  0  0  0  0  0
    4.9389   -2.4546   -0.0375 H   0  0  0  0  0  0  0  0  0  0  0  0
    6.2806    3.0562   -1.4366 H   0  0  0  0  0  0  0  0  0  0  0  0
    7.6854    3.1194   -0.3629 H   0  0  0  0  0  0  0  0  0  0  0  0
    6.0585    3.0165    0.3228 H   0  0  0  0  0  0  0  0  0  0  0  0
  1 31  1  0  0  0  0
  2 12  1  0  0  0  0
  2 48  1  0  0  0  0
  3 17  2  0  0  0  0
  4 18  2  0  0  0  0
  5 27  1  0  0  0  0
  5 30  1  0  0  0  0
  6 10  1  0  0  0  0
  6 33  1  0  0  0  0
  7 14  1  0  0  0  0
  7 16  1  0  0  0  0
  7 17  1  0  0  0  0
  8 11  1  0  0  0  0
  8 18  1  0  0  0  0
  8 47  1  0  0  0  0
  9 17  1  0  0  0  0
  9 20  1  0  0  0  0
  9 49  1  0  0  0  0
 10 34  2  0  0  0  0
 11 12  1  0  0  0  0
 11 14  1  0  0  0  0
 11 37  1  0  0  0  0
 12 13  1  0  0  0  0
 12 38  1  0  0  0  0
 13 15  1  0  0  0  0
 13 39  1  0  0  0  0
 13 40  1  0  0  0  0
 14 41  1  0  0  0  0
 14 42  1  0  0  0  0
 15 16  1  0  0  0  0
 15 43  1  0  0  0  0
 15 44  1  0  0  0  0
 16 45  1  0  0  0  0
 16 46  1  0  0  0  0
 18 19  1  0  0  0  0
 19 21  2  0  0  0  0
 19 22  1  0  0  0  0
 20 25  2  0  0  0  0
 20 26  1  0  0  0  0
 21 23  1  0  0  0  0
 21 50  1  0  0  0  0
 22 24  2  0  0  0  0
 22 51  1  0  0  0  0
 23 27  2  0  0  0  0
 23 52  1  0  0  0  0
 24 27  1  0  0  0  0
 24 53  1  0  0  0  0
 25 28  1  0  0  0  0
 25 54  1  0  0  0  0
 26 29  2  0  0  0  0
 26 55  1  0  0  0  0
 28 31  2  0  0  0  0
 28 56  1  0  0  0  0
 29 31  1  0  0  0  0
 29 57  1  0  0  0  0
 30 32  1  0  0  0  0
 30 58  1  0  0  0  0
 30 59  1  0  0  0  0
 32 33  2  0  0  0  0
 32 34  1  0  0  0  0
 33 35  1  0  0  0  0
 34 36  1  0  0  0  0
 35 60  1  0  0  0  0
 35 61  1  0  0  0  0
 35 62  1  0  0  0  0
 36 63  1  0  0  0  0
 36 64  1  0  0  0  0
 36 65  1  0  0  0  0
M  END
> <PUBCHEM_COMPOUND_CID>
26742127

> <PUBCHEM_CONFORMER_RMSD>
1.4

> <PUBCHEM_CONFORMER_DIVERSEORDER>
1
3
74
85
80
68
100
10
51
83
33
12
78
101
20
19
99
27
69
23
25
71
15
56
64
62
65
91
97
88
63
42
79
93
21
26
18
87
86
5
22
11
28
57
90
53
44
45
7
89
50
16
58
30
103
94
72
76
54
4
95
38
98
46
81
61
77
8
6
59
82
55
41
92
34
17
52
102
84
48
75
73
39
96
43
13
67
47
49
32
37
31
40
14
66
36
24
9
70
29
60
2
35

> <PUBCHEM_MMFF94_PARTIAL_CHARGES>
45
1 -0.19
10 -0.41
11 0.3
12 0.28
14 0.3
16 0.3
17 0.69
18 0.54
19 0.09
2 -0.68
20 0.12
21 -0.15
22 -0.15
23 -0.15
24 -0.15
25 -0.15
26 -0.15
27 0.08
28 -0.15
29 -0.15
3 -0.57
30 0.46
31 0.19
32 -0.18
33 -0.04
34 0.11
35 0.18
36 0.18
4 -0.57
47 0.37
48 0.4
49 0.37
5 -0.36
50 0.15
51 0.15
52 0.15
53 0.15
54 0.15
55 0.15
56 0.15
57 0.15
6 -0.02
7 -0.66
8 -0.73
9 -0.55

> <PUBCHEM_EFFECTIVE_ROTOR_COUNT>
10.4

> <PUBCHEM_PHARMACOPHORE_FEATURES>
12
1 10 acceptor
1 2 acceptor
1 2 donor
1 3 acceptor
1 4 acceptor
1 5 acceptor
1 8 donor
1 9 donor
5 6 10 32 33 34 rings
6 19 21 22 23 24 27 rings
6 20 25 26 28 29 31 rings
7 7 11 12 13 14 15 16 rings

> <PUBCHEM_HEAVY_ATOM_COUNT>
36

> <PUBCHEM_ATOM_DEF_STEREO_COUNT>
2

> <PUBCHEM_ATOM_UDEF_STEREO_COUNT>
0

> <PUBCHEM_BOND_DEF_STEREO_COUNT>
0

> <PUBCHEM_BOND_UDEF_STEREO_COUNT>
0

> <PUBCHEM_ISOTOPIC_ATOM_COUNT>
0

> <PUBCHEM_COMPONENT_COUNT>
1

> <PUBCHEM_CACTVS_TAUTO_COUNT>
4

> <PUBCHEM_CONFORMER_ID>
01980D6F00000001

> <PUBCHEM_MMFF94_ENERGY>
90.1285

> <PUBCHEM_FEATURE_SELFOVERLAP>
60.901

> <PUBCHEM_SHAPE_FINGERPRINT>
10190206 1 18412553089492793000
10483366 6 18343018891677918979
10670039 82 18335134345324298995
11007060 377 18412268341513853768
11135926 11 18338519638573308537
11578080 2 17242152580136193263
13402501 40 18343308097237046562
14930077 153 17823143495780505492
14931854 50 18339065031059016373
15183329 4 18407760339697556514
15351339 4 18340484461499402146
15439362 3 17901945232445916917
16067689 302 18342183276090422383
18608769 82 18261680380462698691
19958102 18 18408326583806315860
20511986 3 18187642540386941408
20609170 92 18261395495139153806
21279426 13 18410862036303789174
23559900 14 18269552900148630784
249057 3 18261396685140922316
3298306 158 18337936957935508377
3383291 50 18273774952090586802
5085150 59 18413383238062513162
5265222 85 18262519328644740444
57527295 17 18057588903545480117
59755656 215 18411696591419959383
6437827 68 18411989061581506578

> <PUBCHEM_SHAPE_MULTIPOLES>
684.32
18.48
4.32
1.56
22.02
3.1
-0.05
-4.13
9.15
-0.61
-0.1
-1.48
-0.93
1.3

> <PUBCHEM_SHAPE_SELFOVERLAP>
1459.765

> <PUBCHEM_SHAPE_VOLUME>
379.3

> <PUBCHEM_COORDINATE_TYPE>
2
5
10

$$$$
