40481337
  -OEChem-12032416173D

 57 62  0     1  0  0  0  0  0999 V2000
    2.5773    0.8347   -0.9915 O   0  0  0  0  0  0  0  0  0  0  0  0
    0.6233   -1.4113   -0.2206 O   0  0  0  0  0  0  0  0  0  0  0  0
    4.1862   -1.1678    0.0537 O   0  0  0  0  0  0  0  0  0  0  0  0
   -0.3178    2.1845   -0.2107 N   0  0  0  0  0  0  0  0  0  0  0  0
    0.5031    3.2273   -0.0232 N   0  0  0  0  0  0  0  0  0  0  0  0
   -1.5511    3.7275    0.6842 N   0  0  0  0  0  0  0  0  0  0  0  0
   -0.2567    4.1682    0.5240 N   0  0  0  0  0  0  0  0  0  0  0  0
    0.7428   -0.0441    0.2311 C   0  0  1  0  0  0  0  0  0  0  0  0
    2.2251    0.2704    0.2818 C   0  0  1  0  0  0  0  0  0  0  0  0
    0.1936    0.8957   -0.8270 C   0  0  2  0  0  0  0  0  0  0  0  0
    2.8450   -1.0918    0.4809 C   0  0  1  0  0  0  0  0  0  0  0  0
    1.3874    1.0393   -1.7674 C   0  0  0  0  0  0  0  0  0  0  0  0
    1.9357   -1.9786   -0.3385 C   0  0  0  0  0  0  0  0  0  0  0  0
   -1.5664    2.4981    0.2231 C   0  0  0  0  0  0  0  0  0  0  0  0
    5.0925   -0.7234    1.0603 C   0  0  0  0  0  0  0  0  0  0  0  0
   -2.6961    1.6063    0.1709 C   0  0  0  0  0  0  0  0  0  0  0  0
    6.4954   -0.8315    0.5388 C   0  0  0  0  0  0  0  0  0  0  0  0
   -3.5207    1.5904   -0.9542 C   0  0  0  0  0  0  0  0  0  0  0  0
   -2.9657    0.7584    1.2451 C   0  0  0  0  0  0  0  0  0  0  0  0
    7.2205   -2.0080    0.7275 C   0  0  0  0  0  0  0  0  0  0  0  0
    7.0741    0.2440   -0.1347 C   0  0  0  0  0  0  0  0  0  0  0  0
   -4.6147    0.7265   -1.0048 C   0  0  0  0  0  0  0  0  0  0  0  0
   -4.0596   -0.1054    1.1945 C   0  0  0  0  0  0  0  0  0  0  0  0
   -4.8841   -0.1214    0.0695 C   0  0  0  0  0  0  0  0  0  0  0  0
    8.5247   -2.1089    0.2428 C   0  0  0  0  0  0  0  0  0  0  0  0
    8.3781    0.1433   -0.6193 C   0  0  0  0  0  0  0  0  0  0  0  0
    9.1034   -1.0331   -0.4305 C   0  0  0  0  0  0  0  0  0  0  0  0
   -6.0186   -1.0176    0.0166 C   0  0  0  0  0  0  0  0  0  0  0  0
   -7.2618   -0.5973    0.4891 C   0  0  0  0  0  0  0  0  0  0  0  0
   -5.8693   -2.3019   -0.5068 C   0  0  0  0  0  0  0  0  0  0  0  0
   -8.3559   -1.4611    0.4383 C   0  0  0  0  0  0  0  0  0  0  0  0
   -6.9632   -3.1657   -0.5578 C   0  0  0  0  0  0  0  0  0  0  0  0
   -8.2066   -2.7454   -0.0852 C   0  0  0  0  0  0  0  0  0  0  0  0
    0.2543    0.0252    1.2078 H   0  0  0  0  0  0  0  0  0  0  0  0
    2.4966    0.9965    1.0535 H   0  0  0  0  0  0  0  0  0  0  0  0
   -0.6636    0.4880   -1.3734 H   0  0  0  0  0  0  0  0  0  0  0  0
    2.7465   -1.3925    1.5335 H   0  0  0  0  0  0  0  0  0  0  0  0
    1.4421    2.0087   -2.2711 H   0  0  0  0  0  0  0  0  0  0  0  0
    1.3673    0.2585   -2.5359 H   0  0  0  0  0  0  0  0  0  0  0  0
    1.9237   -3.0109    0.0241 H   0  0  0  0  0  0  0  0  0  0  0  0
    2.2187   -2.0009   -1.3969 H   0  0  0  0  0  0  0  0  0  0  0  0
    4.9819   -1.3371    1.9631 H   0  0  0  0  0  0  0  0  0  0  0  0
    4.8736    0.3151    1.3366 H   0  0  0  0  0  0  0  0  0  0  0  0
   -3.3235    2.2450   -1.7998 H   0  0  0  0  0  0  0  0  0  0  0  0
   -2.3322    0.7588    2.1290 H   0  0  0  0  0  0  0  0  0  0  0  0
    6.7798   -2.8537    1.2486 H   0  0  0  0  0  0  0  0  0  0  0  0
    6.5182    1.1648   -0.2899 H   0  0  0  0  0  0  0  0  0  0  0  0
   -5.2472    0.7265   -1.8894 H   0  0  0  0  0  0  0  0  0  0  0  0
   -4.2552   -0.7601    2.0406 H   0  0  0  0  0  0  0  0  0  0  0  0
    9.0893   -3.0251    0.3893 H   0  0  0  0  0  0  0  0  0  0  0  0
    8.8287    0.9806   -1.1442 H   0  0  0  0  0  0  0  0  0  0  0  0
   10.1187   -1.1116   -0.8082 H   0  0  0  0  0  0  0  0  0  0  0  0
   -7.3956    0.4005    0.9003 H   0  0  0  0  0  0  0  0  0  0  0  0
   -4.9071   -2.6456   -0.8794 H   0  0  0  0  0  0  0  0  0  0  0  0
   -9.3239   -1.1339    0.8062 H   0  0  0  0  0  0  0  0  0  0  0  0
   -6.8472   -4.1657   -0.9654 H   0  0  0  0  0  0  0  0  0  0  0  0
   -9.0583   -3.4181   -0.1248 H   0  0  0  0  0  0  0  0  0  0  0  0
  1  9  1  0  0  0  0
  1 12  1  0  0  0  0
  2  8  1  0  0  0  0
  2 13  1  0  0  0  0
  3 11  1  0  0  0  0
  3 15  1  0  0  0  0
  4  5  1  0  0  0  0
  4 10  1  0  0  0  0
  4 14  1  0  0  0  0
  5  7  2  0  0  0  0
  6  7  1  0  0  0  0
  6 14  2  0  0  0  0
  8  9  1  0  0  0  0
  8 10  1  0  0  0  0
  8 34  1  0  0  0  0
  9 11  1  0  0  0  0
  9 35  1  0  0  0  0
 10 12  1  0  0  0  0
 10 36  1  0  0  0  0
 11 13  1  0  0  0  0
 11 37  1  0  0  0  0
 12 38  1  0  0  0  0
 12 39  1  0  0  0  0
 13 40  1  0  0  0  0
 13 41  1  0  0  0  0
 14 16  1  0  0  0  0
 15 17  1  0  0  0  0
 15 42  1  0  0  0  0
 15 43  1  0  0  0  0
 16 18  2  0  0  0  0
 16 19  1  0  0  0  0
 17 20  2  0  0  0  0
 17 21  1  0  0  0  0
 18 22  1  0  0  0  0
 18 44  1  0  0  0  0
 19 23  2  0  0  0  0
 19 45  1  0  0  0  0
 20 25  1  0  0  0  0
 20 46  1  0  0  0  0
 21 26  2  0  0  0  0
 21 47  1  0  0  0  0
 22 24  2  0  0  0  0
 22 48  1  0  0  0  0
 23 24  1  0  0  0  0
 23 49  1  0  0  0  0
 24 28  1  0  0  0  0
 25 27  2  0  0  0  0
 25 50  1  0  0  0  0
 26 27  1  0  0  0  0
 26 51  1  0  0  0  0
 27 52  1  0  0  0  0
 28 29  2  0  0  0  0
 28 30  1  0  0  0  0
 29 31  1  0  0  0  0
 29 53  1  0  0  0  0
 30 32  2  0  0  0  0
 30 54  1  0  0  0  0
 31 33  2  0  0  0  0
 31 55  1  0  0  0  0
 32 33  1  0  0  0  0
 32 56  1  0  0  0  0
 33 57  1  0  0  0  0
M  END
> <PUBCHEM_COMPOUND_CID>
40481337

> <PUBCHEM_CONFORMER_RMSD>
1

> <PUBCHEM_CONFORMER_DIVERSEORDER>
1
57
22
32
4
35
17
19
38
34
36
42
13
8
59
31
14
52
46
45
48
20
47
51
37
56
27
50
12
26
53
10
43
11
55
30
58
15
54
16
40
21
49
23
6
24
7
41
2
29
44
5
9
33
25
39
3
18
28

> <PUBCHEM_MMFF94_PARTIAL_CHARGES>
44
1 -0.56
10 0.26
11 0.28
12 0.28
13 0.28
14 0.13
15 0.42
16 0.05
17 -0.14
18 -0.15
19 -0.15
2 -0.56
20 -0.15
21 -0.15
22 -0.15
23 -0.15
25 -0.15
26 -0.15
27 -0.15
29 -0.15
3 -0.56
30 -0.15
31 -0.15
32 -0.15
33 -0.15
4 0.31
44 0.15
45 0.15
46 0.15
47 0.15
48 0.15
49 0.15
5 -0.42
50 0.15
51 0.15
52 0.15
53 0.15
54 0.15
55 0.15
56 0.15
57 0.15
6 -0.34
8 0.28
9 0.28

> <PUBCHEM_EFFECTIVE_ROTOR_COUNT>
7.2

> <PUBCHEM_PHARMACOPHORE_FEATURES>
10
1 1 acceptor
1 2 acceptor
1 3 acceptor
3 4 6 14 cation
5 1 8 9 10 12 rings
5 2 8 9 11 13 rings
5 4 5 6 7 14 rings
6 16 18 19 22 23 24 rings
6 17 20 21 25 26 27 rings
6 28 29 30 31 32 33 rings

> <PUBCHEM_HEAVY_ATOM_COUNT>
33

> <PUBCHEM_ATOM_DEF_STEREO_COUNT>
4

> <PUBCHEM_ATOM_UDEF_STEREO_COUNT>
0

> <PUBCHEM_BOND_DEF_STEREO_COUNT>
0

> <PUBCHEM_BOND_UDEF_STEREO_COUNT>
0

> <PUBCHEM_ISOTOPIC_ATOM_COUNT>
0

> <PUBCHEM_COMPONENT_COUNT>
1

> <PUBCHEM_CACTVS_TAUTO_COUNT>
1

> <PUBCHEM_CONFORMER_ID>
0269B23900000001

> <PUBCHEM_MMFF94_ENERGY>
103.3086

> <PUBCHEM_FEATURE_SELFOVERLAP>
51.466

> <PUBCHEM_SHAPE_FINGERPRINT>
10050765 1 18050849914826256898
10100884 174 18334855022322143162
10190206 1 12829477135428325967
10258705 36 17845103883194550214
10411042 1 18411135861996726905
10904742 90 9511465519951770739
11135609 99 18337955691897675311
11146851 88 18113903792643500035
11181472 205 10663816413265034970
11211813 128 18341897377344505830
11475781 23 11025797553529370298
11497681 19 18261671464173875862
11963148 33 18337663131811366066
12098696 120 9583248262016264155
12107183 9 18270975562218197273
12144600 37 18128540367400589878
12144603 126 18260833653308393561
12166972 35 18113335336288388205
12522641 126 18042131023910026868
12559416 138 18270666620082461079
13248334 5 17978227493618539281
13631057 29 18334293132686702896
13690498 29 18114172035194730053
13782708 43 18055924199864870710
14040221 275 14189296031902770239
14068700 675 18407762534141410757
14150023 24 10519988157877287157
14394314 77 18337675209590900281
1454969 45 18260550009468163014
14856354 85 18272647940071610206
15064986 266 17458071460947572789
15183329 4 11167645548797751448
15461852 350 18408043996459806558
15728490 51 18412825789345045638
16067689 302 18342739659091082524
16991971 28 18410574015295551406
16992752 21 18412551998085984916
16992779 147 16126945608361808034
17686467 74 18343013398615493480
18608769 82 18272083890870447338
20028762 73 18411702084235368238
20105231 36 18202286875760214622
20771845 171 17896885567349716508
21267235 1 18410573993746666977
21344244 246 18188493609099464572
21756936 100 11815600983049375989
21792965 184 18129682832310367825
23389318 12 18041001761164538734
23569917 315 18337113346644882986
23569943 247 18334858351538631963
23729398 52 18192437591362495645
2747138 104 18271517646265692936
306946 40 13840271433833951046
437795 163 18260264140212842890
44575985 240 8142085356467163751
4461854 278 18060424650849093223
4516262 110 9078850550228255875
463206 1 18336267955193453219
4760202 70 18261682566716694316
54039377 194 18335139817381847967
5718773 13 18409445916877169155
57527293 21 17462282435810170552
57527295 17 15574980729490342845
58260988 521 17489588948635149398
6057620 51 18261114059212780730
636775 8 18412267212390803918
6371380 46 7853565803723875334
6673363 416 18342745096994868076
9896288 288 18058170522903942457

> <PUBCHEM_SHAPE_MULTIPOLES>
641.59
27.43
3.63
1.05
21.87
2.46
-0.1
-27.43
0.42
-3.89
0.19
-0.07
0.18
-1.13

> <PUBCHEM_SHAPE_SELFOVERLAP>
1421.085

> <PUBCHEM_SHAPE_VOLUME>
345.3

> <PUBCHEM_COORDINATE_TYPE>
2
5
10

$$$$
