45783274
  -OEChem-12032416273D

 53 56  0     1  0  0  0  0  0999 V2000
   -0.8305   -2.5864   -0.0357 F   0  0  0  0  0  0  0  0  0  0  0  0
   -2.5613    2.3507    0.1242 O   0  0  0  0  0  0  0  0  0  0  0  0
    5.4096   -2.2775    0.3214 O   0  0  0  0  0  0  0  0  0  0  0  0
   -3.2473   -1.1946    0.8071 N   0  0  1  0  0  0  0  0  0  0  0  0
   -1.0311    0.7985    0.6402 N   0  0  0  0  0  0  0  0  0  0  0  0
   -1.3141    2.9291   -0.1436 N   0  0  0  0  0  0  0  0  0  0  0  0
    4.0088    0.1623    0.6700 N   0  0  0  0  0  0  0  0  0  0  0  0
    3.7316    2.3824   -0.1493 N   0  0  0  0  0  0  0  0  0  0  0  0
   -3.5068    0.2523    0.9466 C   0  0  1  0  0  0  0  0  0  0  0  0
   -3.9372    0.4328    2.4141 C   0  0  0  0  0  0  0  0  0  0  0  0
   -3.9487   -0.9717    3.0008 C   0  0  0  0  0  0  0  0  0  0  0  0
   -4.1035   -1.8644    1.7861 C   0  0  0  0  0  0  0  0  0  0  0  0
   -3.4690   -1.6902   -0.5452 C   0  0  0  0  0  0  0  0  0  0  0  0
   -2.3043    1.0973    0.5819 C   0  0  0  0  0  0  0  0  0  0  0  0
   -2.3073   -1.3833   -1.4524 C   0  0  0  0  0  0  0  0  0  0  0  0
   -1.0326   -1.8563   -1.1414 C   0  0  0  0  0  0  0  0  0  0  0  0
   -2.5076   -0.6246   -2.6056 C   0  0  0  0  0  0  0  0  0  0  0  0
   -0.4630    1.9527    0.1854 C   0  0  0  0  0  0  0  0  0  0  0  0
    0.9595    2.0988    0.0730 C   0  0  0  0  0  0  0  0  0  0  0  0
    0.0420   -1.5707   -1.9837 C   0  0  0  0  0  0  0  0  0  0  0  0
   -1.4330   -0.3390   -3.4479 C   0  0  0  0  0  0  0  0  0  0  0  0
   -0.1581   -0.8120   -3.1370 C   0  0  0  0  0  0  0  0  0  0  0  0
    1.7994    1.0495    0.4297 C   0  0  0  0  0  0  0  0  0  0  0  0
    1.5041    3.2897   -0.3946 C   0  0  0  0  0  0  0  0  0  0  0  0
    3.1658    1.2401    0.3012 C   0  0  0  0  0  0  0  0  0  0  0  0
    2.8836    3.3801   -0.4863 C   0  0  0  0  0  0  0  0  0  0  0  0
    3.5026   -1.0795    1.1565 C   0  0  0  0  0  0  0  0  0  0  0  0
    4.6525   -2.0125    1.4957 C   0  0  0  0  0  0  0  0  0  0  0  0
    6.4960   -3.1535    0.5886 C   0  0  0  0  0  0  0  0  0  0  0  0
   -4.3510    0.5591    0.3131 H   0  0  0  0  0  0  0  0  0  0  0  0
   -3.2777    1.0901    2.9911 H   0  0  0  0  0  0  0  0  0  0  0  0
   -4.9492    0.8542    2.4521 H   0  0  0  0  0  0  0  0  0  0  0  0
   -4.7537   -1.1096    3.7285 H   0  0  0  0  0  0  0  0  0  0  0  0
   -2.9951   -1.1728    3.5045 H   0  0  0  0  0  0  0  0  0  0  0  0
   -5.1517   -1.8877    1.4621 H   0  0  0  0  0  0  0  0  0  0  0  0
   -3.7715   -2.8864    1.9934 H   0  0  0  0  0  0  0  0  0  0  0  0
   -4.4154   -1.3222   -0.9629 H   0  0  0  0  0  0  0  0  0  0  0  0
   -3.5609   -2.7855   -0.5305 H   0  0  0  0  0  0  0  0  0  0  0  0
   -3.4946   -0.2476   -2.8593 H   0  0  0  0  0  0  0  0  0  0  0  0
    1.0348   -1.9374   -1.7401 H   0  0  0  0  0  0  0  0  0  0  0  0
   -1.5886    0.2531   -4.3450 H   0  0  0  0  0  0  0  0  0  0  0  0
    0.6790   -0.5881   -3.7916 H   0  0  0  0  0  0  0  0  0  0  0  0
    1.3709    0.1221    0.7920 H   0  0  0  0  0  0  0  0  0  0  0  0
    0.8992    4.1414   -0.6878 H   0  0  0  0  0  0  0  0  0  0  0  0
    3.3585    4.2873   -0.8452 H   0  0  0  0  0  0  0  0  0  0  0  0
    5.0059    0.3132    0.5678 H   0  0  0  0  0  0  0  0  0  0  0  0
    2.9045   -0.9346    2.0637 H   0  0  0  0  0  0  0  0  0  0  0  0
    2.8828   -1.5599    0.3896 H   0  0  0  0  0  0  0  0  0  0  0  0
    5.3012   -1.5566    2.2537 H   0  0  0  0  0  0  0  0  0  0  0  0
    4.2544   -2.9532    1.8937 H   0  0  0  0  0  0  0  0  0  0  0  0
    6.1307   -4.1164    0.9585 H   0  0  0  0  0  0  0  0  0  0  0  0
    7.0396   -3.3221   -0.3448 H   0  0  0  0  0  0  0  0  0  0  0  0
    7.1807   -2.7053    1.3151 H   0  0  0  0  0  0  0  0  0  0  0  0
  1 16  1  0  0  0  0
  2  6  1  0  0  0  0
  2 14  1  0  0  0  0
  3 28  1  0  0  0  0
  3 29  1  0  0  0  0
  4  9  1  0  0  0  0
  4 12  1  0  0  0  0
  4 13  1  0  0  0  0
  5 14  2  0  0  0  0
  5 18  1  0  0  0  0
  6 18  2  0  0  0  0
  7 25  1  0  0  0  0
  7 27  1  0  0  0  0
  7 46  1  0  0  0  0
  8 25  2  0  0  0  0
  8 26  1  0  0  0  0
  9 10  1  0  0  0  0
  9 14  1  0  0  0  0
  9 30  1  0  0  0  0
 10 11  1  0  0  0  0
 10 31  1  0  0  0  0
 10 32  1  0  0  0  0
 11 12  1  0  0  0  0
 11 33  1  0  0  0  0
 11 34  1  0  0  0  0
 12 35  1  0  0  0  0
 12 36  1  0  0  0  0
 13 15  1  0  0  0  0
 13 37  1  0  0  0  0
 13 38  1  0  0  0  0
 15 16  1  0  0  0  0
 15 17  2  0  0  0  0
 16 20  2  0  0  0  0
 17 21  1  0  0  0  0
 17 39  1  0  0  0  0
 18 19  1  0  0  0  0
 19 23  2  0  0  0  0
 19 24  1  0  0  0  0
 20 22  1  0  0  0  0
 20 40  1  0  0  0  0
 21 22  2  0  0  0  0
 21 41  1  0  0  0  0
 22 42  1  0  0  0  0
 23 25  1  0  0  0  0
 23 43  1  0  0  0  0
 24 26  2  0  0  0  0
 24 44  1  0  0  0  0
 26 45  1  0  0  0  0
 27 28  1  0  0  0  0
 27 47  1  0  0  0  0
 27 48  1  0  0  0  0
 28 49  1  0  0  0  0
 28 50  1  0  0  0  0
 29 51  1  0  0  0  0
 29 52  1  0  0  0  0
 29 53  1  0  0  0  0
M  END
> <PUBCHEM_COMPOUND_CID>
45783274

> <PUBCHEM_CONFORMER_RMSD>
1

> <PUBCHEM_CONFORMER_DIVERSEORDER>
1
162
143
105
79
29
8
96
163
39
91
26
109
93
142
101
81
118
151
157
166
66
116
69
98
80
82
99
62
85
70
159
119
78
110
155
84
148
76
10
59
74
114
140
67
164
19
94
40
132
28
102
150
123
89
139
122
154
41
24
127
141
133
52
117
153
174
138
156
65
161
49
72
136
165
6
160
125
129
112
64
173
47
108
15
111
147
172
135
92
149
121
124
120
171
20
56
158
68
43
25
21
131
87
113
170
51
63
75
88
169
3
37
48
45
168
126
146
60
55
2
30
115
152
5
58
18
73
90
53
36
14
23
167
32
144
17
61
46
130
33
31
4
77
134
12
104
145
100
35
106
137
16
57
71
44
107
50
103
34
128
95
83
54
97
38
86
11
7
27
13
22
9
42

> <PUBCHEM_MMFF94_PARTIAL_CHARGES>
35
1 -0.19
12 0.27
13 0.41
14 0.3
15 -0.14
16 0.19
17 -0.15
18 0.46
19 0.05
2 -0.02
20 -0.15
21 -0.15
22 -0.15
23 -0.15
24 -0.15
25 0.41
26 0.16
27 0.37
28 0.28
29 0.28
3 -0.56
39 0.15
4 -0.81
40 0.15
41 0.15
42 0.15
43 0.15
44 0.15
45 0.15
46 0.4
5 -0.57
6 -0.41
7 -0.87
8 -0.62
9 0.45

> <PUBCHEM_EFFECTIVE_ROTOR_COUNT>
9

> <PUBCHEM_PHARMACOPHORE_FEATURES>
9
1 3 acceptor
1 4 cation
1 7 donor
3 5 6 18 cation
3 7 8 25 cation
5 2 5 6 14 18 rings
5 4 9 10 11 12 rings
6 15 16 17 20 21 22 rings
6 8 19 23 24 25 26 rings

> <PUBCHEM_HEAVY_ATOM_COUNT>
29

> <PUBCHEM_ATOM_DEF_STEREO_COUNT>
1

> <PUBCHEM_ATOM_UDEF_STEREO_COUNT>
0

> <PUBCHEM_BOND_DEF_STEREO_COUNT>
0

> <PUBCHEM_BOND_UDEF_STEREO_COUNT>
0

> <PUBCHEM_ISOTOPIC_ATOM_COUNT>
0

> <PUBCHEM_COMPONENT_COUNT>
1

> <PUBCHEM_CACTVS_TAUTO_COUNT>
2

> <PUBCHEM_CONFORMER_ID>
02BA98EA00000001

> <PUBCHEM_MMFF94_ENERGY>
64.9245

> <PUBCHEM_FEATURE_SELFOVERLAP>
45.672

> <PUBCHEM_SHAPE_FINGERPRINT>
10764073 3 18188782622117721537
11135926 11 18263639736248455292
11582403 64 13613959920700877803
11607047 141 15866647165900213145
11725454 13 13829591829336143417
12422481 6 17845945017709402254
12553582 1 18268143348027628032
12633257 1 18342188760140602035
12788726 201 16410984753488928021
13004483 165 15120405479811459469
14910302 57 16154247516454661169
16110190 28 18272088263110010866
17809404 112 17682633533470404226
19319366 153 17834972136351175024
21796203 349 18197243437091844696
345986 75 17127316553110011783
484985 159 18190443992060275103
7064713 232 17275110513327883771
9862522 239 17846510252944062721

> <PUBCHEM_SHAPE_MULTIPOLES>
552.89
9.98
3.95
2.87
12.71
1.65
-1.63
-7.93
7.03
4.63
0.05
-3.6
-1.64
-1.48

> <PUBCHEM_SHAPE_SELFOVERLAP>
1187.524

> <PUBCHEM_SHAPE_VOLUME>
307.8

> <PUBCHEM_COORDINATE_TYPE>
2
5
10

$$$$
