26744058
  -OEChem-12032416183D

 58 62  0     1  0  0  0  0  0999 V2000
    2.1175   -0.0704   -0.2260 S   0  0  0  0  0  0  0  0  0  0  0  0
   -4.7786    4.5343    0.8160 O   0  0  0  0  0  0  0  0  0  0  0  0
   -1.9067    0.3615   -2.2287 O   0  0  0  0  0  0  0  0  0  0  0  0
    2.1569   -1.4546   -0.6594 O   0  0  0  0  0  0  0  0  0  0  0  0
    1.3619    0.3112    0.9521 O   0  0  0  0  0  0  0  0  0  0  0  0
   -3.3951    1.2393    0.8314 N   0  0  1  0  0  0  0  0  0  0  0  0
   -2.8049   -2.1382   -0.0322 N   0  0  0  0  0  0  0  0  0  0  0  0
   -0.6920    1.5210   -0.7466 N   0  0  0  0  0  0  0  0  0  0  0  0
   -1.6542   -1.1659    1.6021 N   0  0  0  0  0  0  0  0  0  0  0  0
   -0.5652    0.1295   -2.5581 N   0  0  0  0  0  0  0  0  0  0  0  0
   -3.2395    1.5961   -0.5934 C   0  0  1  0  0  0  0  0  0  0  0  0
   -3.4725    3.1175   -0.6460 C   0  0  0  0  0  0  0  0  0  0  0  0
   -3.7966    3.5167    0.7882 C   0  0  2  0  0  0  0  0  0  0  0  0
   -4.3027    2.2287    1.4092 C   0  0  0  0  0  0  0  0  0  0  0  0
   -3.8690   -0.1237    1.0338 C   0  0  0  0  0  0  0  0  0  0  0  0
   -1.8920    1.1903   -1.1521 C   0  0  0  0  0  0  0  0  0  0  0  0
   -2.7586   -1.1304    0.8904 C   0  0  0  0  0  0  0  0  0  0  0  0
   -1.6537   -2.8729    0.0922 C   0  0  0  0  0  0  0  0  0  0  0  0
    0.0888    0.8465   -1.6395 C   0  0  0  0  0  0  0  0  0  0  0  0
   -0.9524   -2.2461    1.1186 C   0  0  0  0  0  0  0  0  0  0  0  0
    1.5542    0.9018   -1.5954 C   0  0  0  0  0  0  0  0  0  0  0  0
   -3.8741   -2.3882   -0.9725 C   0  0  0  0  0  0  0  0  0  0  0  0
   -1.1803   -3.9977   -0.5842 C   0  0  0  0  0  0  0  0  0  0  0  0
    0.2973   -2.7584    1.5064 C   0  0  0  0  0  0  0  0  0  0  0  0
    0.0652   -4.4940   -0.1854 C   0  0  0  0  0  0  0  0  0  0  0  0
    0.7925   -3.8869    0.8410 C   0  0  0  0  0  0  0  0  0  0  0  0
    3.7796    0.4738    0.0237 C   0  0  0  0  0  0  0  0  0  0  0  0
    4.0423    1.5376    0.8869 C   0  0  0  0  0  0  0  0  0  0  0  0
    4.8285   -0.1581   -0.6441 C   0  0  0  0  0  0  0  0  0  0  0  0
    5.3541    1.9694    1.0822 C   0  0  0  0  0  0  0  0  0  0  0  0
    6.1402    0.2737   -0.4488 C   0  0  0  0  0  0  0  0  0  0  0  0
    6.4032    1.3374    0.4145 C   0  0  0  0  0  0  0  0  0  0  0  0
    7.8058    1.7991    0.6235 C   0  0  0  0  0  0  0  0  0  0  0  0
   -4.0280    1.1268   -1.1984 H   0  0  0  0  0  0  0  0  0  0  0  0
   -2.6056    3.6806   -1.0104 H   0  0  0  0  0  0  0  0  0  0  0  0
   -4.3115    3.3492   -1.3142 H   0  0  0  0  0  0  0  0  0  0  0  0
   -2.8964    3.8708    1.3053 H   0  0  0  0  0  0  0  0  0  0  0  0
   -4.2386    2.2628    2.5019 H   0  0  0  0  0  0  0  0  0  0  0  0
   -5.3510    2.0488    1.1362 H   0  0  0  0  0  0  0  0  0  0  0  0
   -4.2200   -0.2295    2.0700 H   0  0  0  0  0  0  0  0  0  0  0  0
   -4.7382   -0.3473    0.4059 H   0  0  0  0  0  0  0  0  0  0  0  0
   -4.4186    5.3007    0.3377 H   0  0  0  0  0  0  0  0  0  0  0  0
    1.8789    1.9343   -1.4331 H   0  0  0  0  0  0  0  0  0  0  0  0
    2.0231    0.5206   -2.5068 H   0  0  0  0  0  0  0  0  0  0  0  0
   -4.7764   -2.6376   -0.4081 H   0  0  0  0  0  0  0  0  0  0  0  0
   -3.6177   -3.2186   -1.6323 H   0  0  0  0  0  0  0  0  0  0  0  0
   -4.0287   -1.4897   -1.5746 H   0  0  0  0  0  0  0  0  0  0  0  0
   -1.7373   -4.4757   -1.3815 H   0  0  0  0  0  0  0  0  0  0  0  0
    0.8691   -2.2965    2.3048 H   0  0  0  0  0  0  0  0  0  0  0  0
    0.4745   -5.3689   -0.6845 H   0  0  0  0  0  0  0  0  0  0  0  0
    1.7578   -4.2956    1.1287 H   0  0  0  0  0  0  0  0  0  0  0  0
    3.2398    2.0486    1.4112 H   0  0  0  0  0  0  0  0  0  0  0  0
    4.6448   -0.9840   -1.3254 H   0  0  0  0  0  0  0  0  0  0  0  0
    5.5462    2.7992    1.7572 H   0  0  0  0  0  0  0  0  0  0  0  0
    6.9491   -0.2267   -0.9744 H   0  0  0  0  0  0  0  0  0  0  0  0
    8.2595    1.2560    1.4584 H   0  0  0  0  0  0  0  0  0  0  0  0
    8.4134    1.6357   -0.2731 H   0  0  0  0  0  0  0  0  0  0  0  0
    7.8403    2.8718    0.8423 H   0  0  0  0  0  0  0  0  0  0  0  0
  1  4  2  0  0  0  0
  1  5  2  0  0  0  0
  1 21  1  0  0  0  0
  1 27  1  0  0  0  0
  2 13  1  0  0  0  0
  2 42  1  0  0  0  0
  3 10  1  0  0  0  0
  3 16  1  0  0  0  0
  6 11  1  0  0  0  0
  6 14  1  0  0  0  0
  6 15  1  0  0  0  0
  7 17  1  0  0  0  0
  7 18  1  0  0  0  0
  7 22  1  0  0  0  0
  8 16  2  0  0  0  0
  8 19  1  0  0  0  0
  9 17  2  0  0  0  0
  9 20  1  0  0  0  0
 10 19  2  0  0  0  0
 11 12  1  0  0  0  0
 11 16  1  0  0  0  0
 11 34  1  0  0  0  0
 12 13  1  0  0  0  0
 12 35  1  0  0  0  0
 12 36  1  0  0  0  0
 13 14  1  0  0  0  0
 13 37  1  0  0  0  0
 14 38  1  0  0  0  0
 14 39  1  0  0  0  0
 15 17  1  0  0  0  0
 15 40  1  0  0  0  0
 15 41  1  0  0  0  0
 18 20  1  0  0  0  0
 18 23  2  0  0  0  0
 19 21  1  0  0  0  0
 20 24  2  0  0  0  0
 21 43  1  0  0  0  0
 21 44  1  0  0  0  0
 22 45  1  0  0  0  0
 22 46  1  0  0  0  0
 22 47  1  0  0  0  0
 23 25  1  0  0  0  0
 23 48  1  0  0  0  0
 24 26  1  0  0  0  0
 24 49  1  0  0  0  0
 25 26  2  0  0  0  0
 25 50  1  0  0  0  0
 26 51  1  0  0  0  0
 27 28  2  0  0  0  0
 27 29  1  0  0  0  0
 28 30  1  0  0  0  0
 28 52  1  0  0  0  0
 29 31  2  0  0  0  0
 29 53  1  0  0  0  0
 30 32  2  0  0  0  0
 30 54  1  0  0  0  0
 31 32  1  0  0  0  0
 31 55  1  0  0  0  0
 32 33  1  0  0  0  0
 33 56  1  0  0  0  0
 33 57  1  0  0  0  0
 33 58  1  0  0  0  0
M  END
> <PUBCHEM_COMPOUND_CID>
26744058

> <PUBCHEM_CONFORMER_RMSD>
1.4

> <PUBCHEM_CONFORMER_DIVERSEORDER>
4
50
89
45
65
30
12
131
79
129
19
84
35
107
98
113
106
10
118
21
62
73
61
145
47
91
142
117
103
130
139
108
17
120
9
53
66
143
112
136
125
24
71
95
25
51
70
72
13
116
114
104
105
26
88
11
102
132
22
27
115
60
3
144
119
126
101
49
124
90
20
97
48
38
121
77
137
63
8
43
83
2
29
82
64
74
140
68
100
58
141
34
67
69
122
42
94
127
110
44
16
52
7
78
96
111
128
134
85
14
1
135
23
80
109
37
86
56
32
55
33
87
41
133
59
92
31
138
5
15
76
46
54
18
99
39
93
123
57
81
40
36
75
28
6

> <PUBCHEM_MMFF94_PARTIAL_CHARGES>
41
1 1.2
10 -0.41
11 0.45
13 0.28
14 0.27
15 0.45
16 0.3
17 0.01
18 -0.15
19 0.34
2 -0.68
20 0.23
21 0.29
22 0.26
23 -0.15
24 -0.15
25 -0.15
26 -0.15
27 -0.01
28 -0.15
29 -0.15
3 -0.02
30 -0.15
31 -0.15
32 -0.14
33 0.14
4 -0.65
42 0.4
48 0.15
49 0.15
5 -0.65
50 0.15
51 0.15
52 0.15
53 0.15
54 0.15
55 0.15
6 -0.81
7 0.05
8 -0.57
9 -0.57

> <PUBCHEM_EFFECTIVE_ROTOR_COUNT>
7

> <PUBCHEM_PHARMACOPHORE_FEATURES>
12
1 2 acceptor
1 2 donor
1 4 acceptor
1 5 acceptor
1 6 cation
3 7 9 17 cation
3 8 10 19 cation
5 3 8 10 16 19 rings
5 6 11 12 13 14 rings
5 7 9 17 18 20 rings
6 18 20 23 24 25 26 rings
6 27 28 29 30 31 32 rings

> <PUBCHEM_HEAVY_ATOM_COUNT>
33

> <PUBCHEM_ATOM_DEF_STEREO_COUNT>
2

> <PUBCHEM_ATOM_UDEF_STEREO_COUNT>
0

> <PUBCHEM_BOND_DEF_STEREO_COUNT>
0

> <PUBCHEM_BOND_UDEF_STEREO_COUNT>
0

> <PUBCHEM_ISOTOPIC_ATOM_COUNT>
0

> <PUBCHEM_COMPONENT_COUNT>
1

> <PUBCHEM_CACTVS_TAUTO_COUNT>
1

> <PUBCHEM_CONFORMER_ID>
019814FA00000004

> <PUBCHEM_MMFF94_ENERGY>
54.3077

> <PUBCHEM_FEATURE_SELFOVERLAP>
61.025

> <PUBCHEM_SHAPE_FINGERPRINT>
11014199 57 17541949028106504258
11112241 14 18265615390480441837
11115154 58 17765695207774222943
11370993 144 18412266117047204886
11552529 35 18193831772543105258
12156800 1 12694468200899654047
12422481 6 17459472152302467722
12788726 201 18119828042681343197
13009979 54 17683812377397172058
13583140 156 17201929339383053210
14020679 6 18342459248670461392
14068700 675 18193550306066762887
14142880 1 18333449854892666323
14659021 117 18197206169138468098
14856354 85 18196659716613341108
15021287 119 16515674581824845796
15230672 131 18335424509890683838
15361156 5 18120101834779427166
21033648 29 18342170073176007416
21756936 100 18342168969279507040
25019877 29 17916604166365062687
283562 15 18337382842487702531
4112364 45 17766283068711702665
469060 322 16805320028344297991
508706 21 18270114746764149794
5265222 85 18119560750077170934
5283173 99 18342740762770609712
5951187 136 17123967041276002609
59755656 520 18408321060858415064
9896288 288 18410581695029366851

> <PUBCHEM_SHAPE_MULTIPOLES>
634.59
12.7
5.36
1.68
25.9
2.68
0.54
-12.61
-3.32
-6.99
-1.19
-0.77
-0.23
-0.24

> <PUBCHEM_SHAPE_SELFOVERLAP>
1375.021

> <PUBCHEM_SHAPE_VOLUME>
351.1

> <PUBCHEM_COORDINATE_TYPE>
2
5
10

$$$$
