11884077
  -OEChem-12032416373D

 49 52  0     1  0  0  0  0  0999 V2000
    4.8823   -0.6115    1.4916 S   0  0  0  0  0  0  0  0  0  0  0  0
    5.1699   -2.6714   -0.5631 S   0  0  0  0  0  0  0  0  0  0  0  0
    0.7016    0.2389   -0.5993 O   0  0  0  0  0  0  0  0  0  0  0  0
    2.0161    2.9598   -0.0243 O   0  0  0  0  0  0  0  0  0  0  0  0
   -1.4049    2.0429   -0.5634 O   0  0  0  0  0  0  0  0  0  0  0  0
    4.9973   -1.7476    2.3851 O   0  0  0  0  0  0  0  0  0  0  0  0
    5.5299    0.6509    1.7898 O   0  0  0  0  0  0  0  0  0  0  0  0
   -2.1989    0.7956    1.1813 O   0  0  0  0  0  0  0  0  0  0  0  0
   -7.9992   -1.9424    0.0911 O   0  0  0  0  0  0  0  0  0  0  0  0
    3.2316   -0.3182    1.1536 N   0  0  0  0  0  0  0  0  0  0  0  0
   -3.4090    1.0372   -0.8081 N   0  0  0  0  0  0  0  0  0  0  0  0
    1.9641    1.7370    0.7398 C   0  0  1  0  0  0  0  0  0  0  0  0
    0.5899    1.1371    0.5171 C   0  0  1  0  0  0  0  0  0  0  0  0
    2.9064    0.7194    0.1462 C   0  0  2  0  0  0  0  0  0  0  0  0
   -0.2461    2.3481    0.1791 C   0  0  1  0  0  0  0  0  0  0  0  0
    2.0824    0.1088   -0.9707 C   0  0  0  0  0  0  0  0  0  0  0  0
    0.7267    3.1968   -0.6078 C   0  0  0  0  0  0  0  0  0  0  0  0
   -2.3432    1.2371    0.0479 C   0  0  0  0  0  0  0  0  0  0  0  0
    5.6535   -1.1293   -0.0417 C   0  0  0  0  0  0  0  0  0  0  0  0
    6.5469   -0.5227   -0.8589 C   0  0  0  0  0  0  0  0  0  0  0  0
    6.8618   -1.3506   -1.9748 C   0  0  0  0  0  0  0  0  0  0  0  0
    6.1826   -2.5485   -1.9384 C   0  0  0  0  0  0  0  0  0  0  0  0
   -4.5791    0.2782   -0.5786 C   0  0  0  0  0  0  0  0  0  0  0  0
   -5.5423    0.1987   -1.5716 C   0  0  0  0  0  0  0  0  0  0  0  0
   -4.7401   -0.3717    0.6348 C   0  0  0  0  0  0  0  0  0  0  0  0
   -6.6971   -0.5505   -1.3453 C   0  0  0  0  0  0  0  0  0  0  0  0
   -5.8948   -1.1209    0.8609 C   0  0  0  0  0  0  0  0  0  0  0  0
   -6.8733   -1.2102   -0.1291 C   0  0  0  0  0  0  0  0  0  0  0  0
   -8.1148   -2.5911    1.3567 C   0  0  0  0  0  0  0  0  0  0  0  0
    2.1640    1.9893    1.7859 H   0  0  0  0  0  0  0  0  0  0  0  0
    0.2389    0.5589    1.3758 H   0  0  0  0  0  0  0  0  0  0  0  0
    3.8166    1.1781   -0.2516 H   0  0  0  0  0  0  0  0  0  0  0  0
   -0.5175    2.8873    1.0966 H   0  0  0  0  0  0  0  0  0  0  0  0
    2.3047   -0.9440   -1.1673 H   0  0  0  0  0  0  0  0  0  0  0  0
    2.2182    0.6665   -1.9038 H   0  0  0  0  0  0  0  0  0  0  0  0
    0.7602    2.9185   -1.6671 H   0  0  0  0  0  0  0  0  0  0  0  0
    0.4886    4.2632   -0.5513 H   0  0  0  0  0  0  0  0  0  0  0  0
    2.5728   -1.1048    1.2156 H   0  0  0  0  0  0  0  0  0  0  0  0
    6.9661    0.4604   -0.6897 H   0  0  0  0  0  0  0  0  0  0  0  0
   -3.3462    1.4910   -1.7162 H   0  0  0  0  0  0  0  0  0  0  0  0
    7.5512   -1.0812   -2.7643 H   0  0  0  0  0  0  0  0  0  0  0  0
    6.2325   -3.3572   -2.6538 H   0  0  0  0  0  0  0  0  0  0  0  0
   -5.4151    0.7085   -2.5226 H   0  0  0  0  0  0  0  0  0  0  0  0
   -4.0275   -0.3488    1.4464 H   0  0  0  0  0  0  0  0  0  0  0  0
   -7.4557   -0.6166   -2.1204 H   0  0  0  0  0  0  0  0  0  0  0  0
   -5.9686   -1.6084    1.8272 H   0  0  0  0  0  0  0  0  0  0  0  0
   -8.1518   -1.8675    2.1780 H   0  0  0  0  0  0  0  0  0  0  0  0
   -9.0700   -3.1265    1.3593 H   0  0  0  0  0  0  0  0  0  0  0  0
   -7.3283   -3.3401    1.4983 H   0  0  0  0  0  0  0  0  0  0  0  0
  1  6  2  0  0  0  0
  1  7  2  0  0  0  0
  1 10  1  0  0  0  0
  1 19  1  0  0  0  0
  2 19  1  0  0  0  0
  2 22  1  0  0  0  0
  3 13  1  0  0  0  0
  3 16  1  0  0  0  0
  4 12  1  0  0  0  0
  4 17  1  0  0  0  0
  5 15  1  0  0  0  0
  5 18  1  0  0  0  0
  8 18  2  0  0  0  0
  9 28  1  0  0  0  0
  9 29  1  0  0  0  0
 10 14  1  0  0  0  0
 10 38  1  0  0  0  0
 11 18  1  0  0  0  0
 11 23  1  0  0  0  0
 11 40  1  0  0  0  0
 12 13  1  0  0  0  0
 12 14  1  0  0  0  0
 12 30  1  0  0  0  0
 13 15  1  0  0  0  0
 13 31  1  0  0  0  0
 14 16  1  0  0  0  0
 14 32  1  0  0  0  0
 15 17  1  0  0  0  0
 15 33  1  0  0  0  0
 16 34  1  0  0  0  0
 16 35  1  0  0  0  0
 17 36  1  0  0  0  0
 17 37  1  0  0  0  0
 19 20  2  0  0  0  0
 20 21  1  0  0  0  0
 20 39  1  0  0  0  0
 21 22  2  0  0  0  0
 21 41  1  0  0  0  0
 22 42  1  0  0  0  0
 23 24  2  0  0  0  0
 23 25  1  0  0  0  0
 24 26  1  0  0  0  0
 24 43  1  0  0  0  0
 25 27  2  0  0  0  0
 25 44  1  0  0  0  0
 26 28  2  0  0  0  0
 26 45  1  0  0  0  0
 27 28  1  0  0  0  0
 27 46  1  0  0  0  0
 29 47  1  0  0  0  0
 29 48  1  0  0  0  0
 29 49  1  0  0  0  0
M  END
> <PUBCHEM_COMPOUND_CID>
11884077

> <PUBCHEM_CONFORMER_RMSD>
1

> <PUBCHEM_CONFORMER_DIVERSEORDER>
1
94
40
87
16
13
150
115
86
146
80
98
78
46
113
18
149
137
116
161
55
143
125
53
45
140
112
48
67
91
33
155
23
168
142
171
126
84
152
73
119
64
56
52
109
134
38
99
8
27
132
69
28
11
133
147
82
172
49
35
76
79
85
117
108
63
59
120
15
54
26
111
24
160
124
70
20
60
75
141
71
148
65
96
130
92
29
104
57
43
100
41
127
164
5
50
44
39
114
157
95
9
144
153
42
22
136
162
154
129
32
7
81
163
10
138
36
167
101
166
3
14
151
106
110
4
170
83
102
159
25
121
165
90
158
88
17
93
128
169
89
68
135
123
31
34
6
47
131
37
139
156
74
103
118
51
66
2
107
122
58
30
105
12
21
72
77
62
61
19
145
97

> <PUBCHEM_MMFF94_PARTIAL_CHARGES>
38
1 1.5
10 -0.91
11 -0.55
12 0.28
13 0.28
14 0.36
15 0.28
16 0.28
17 0.28
18 0.78
19 -0.02
2 -0.08
20 -0.15
21 -0.15
22 -0.11
23 0.12
24 -0.15
25 -0.15
26 -0.15
27 -0.15
28 0.08
29 0.28
3 -0.56
38 0.42
39 0.15
4 -0.56
40 0.37
41 0.15
42 0.15
43 0.15
44 0.15
45 0.15
46 0.15
5 -0.43
6 -0.65
7 -0.65
8 -0.57
9 -0.36

> <PUBCHEM_EFFECTIVE_ROTOR_COUNT>
9.2

> <PUBCHEM_PHARMACOPHORE_FEATURES>
12
1 10 donor
1 11 donor
1 3 acceptor
1 4 acceptor
1 6 acceptor
1 7 acceptor
1 8 acceptor
1 9 acceptor
5 2 19 20 21 22 rings
5 3 12 13 14 16 rings
5 4 12 13 15 17 rings
6 23 24 25 26 27 28 rings

> <PUBCHEM_HEAVY_ATOM_COUNT>
29

> <PUBCHEM_ATOM_DEF_STEREO_COUNT>
4

> <PUBCHEM_ATOM_UDEF_STEREO_COUNT>
0

> <PUBCHEM_BOND_DEF_STEREO_COUNT>
0

> <PUBCHEM_BOND_UDEF_STEREO_COUNT>
0

> <PUBCHEM_ISOTOPIC_ATOM_COUNT>
0

> <PUBCHEM_COMPONENT_COUNT>
1

> <PUBCHEM_CACTVS_TAUTO_COUNT>
2

> <PUBCHEM_CONFORMER_ID>
00B5562D00000001

> <PUBCHEM_MMFF94_ENERGY>
80.6898

> <PUBCHEM_FEATURE_SELFOVERLAP>
61.629

> <PUBCHEM_SHAPE_FINGERPRINT>
10 15 13254790274259183987
10076449 9 17703515411804140886
10669705 251 18271533091079612567
10883706 89 14189030907586784630
10981352 41 18059849571474763782
11475781 23 11963399526999438994
11478447 147 15720249433637748838
117089 54 18055359033524091694
12166972 35 17918275354997343976
12422481 6 17346309380447759772
12623949 98 17631739258114186262
13533116 47 17703784843149254152
1361 87 17677064546036405579
13668630 136 18409729573713051563
13782708 43 17917143893228879446
14123256 34 18411983555122021463
14598715 104 10519992543713921475
15183329 4 16660362567269659399
15301273 46 17917990542662323117
15510800 12 18410019862094990083
17134984 74 17822293496309727570
18222031 100 18410853231684116248
18335252 98 18272653446636193636
20028762 73 18272649064947424575
2026 5 18408879642968078035
20715895 44 10881695606906350398
21033650 10 16660640705801119301
21150785 3 16877947139456557598
21196832 93 17676781966583394387
21267235 1 18412548717041739381
21424621 283 8142075468924830228
21585481 104 15285908105967246999
21585481 151 18202290208164264431
21585482 310 18410580604276842607
229767 8 17699860514409949102
2303208 19 17988074496533444516
23559900 14 17530682147561807349
249057 25 12102690053341441568
255183 451 18334580178668974749
2748736 6 9367337133056656083
2838139 119 11819267828415234412
3004659 81 18113056042917524461
312425 54 16200138924269321670
3383291 50 18411417336931571075
3504750 166 18060419132600905501
397638 26 11024106525519176934
4461854 278 17703515462484763647
465052 167 18412823603169502356
563151 248 16200143300930414415
5718773 13 18187354437848522891
59682541 52 15574713582397352474

> <PUBCHEM_SHAPE_MULTIPOLES>
553.46
23.66
3.07
1.72
23.31
0.66
-0.25
-23.96
1.6
-1.06
0.26
-1.82
-0.8
2.75

> <PUBCHEM_SHAPE_SELFOVERLAP>
1166.807

> <PUBCHEM_SHAPE_VOLUME>
312.5

> <PUBCHEM_COORDINATE_TYPE>
2
5
10

$$$$
