75536798
  -OEChem-12032416333D

 51 53  0     1  0  0  0  0  0999 V2000
   -4.7845   -0.6049   -0.1717 S   0  0  0  0  0  0  0  0  0  0  0  0
    4.4343    0.5478    0.9932 O   0  0  0  0  0  0  0  0  0  0  0  0
    5.0796   -2.1505   -0.6103 O   0  0  0  0  0  0  0  0  0  0  0  0
    1.0650    0.9095   -2.1918 O   0  0  0  0  0  0  0  0  0  0  0  0
   -5.2136   -0.0854    1.1196 O   0  0  0  0  0  0  0  0  0  0  0  0
   -4.9530    0.2061   -1.3692 O   0  0  0  0  0  0  0  0  0  0  0  0
    1.8583   -1.1053    0.7192 N   0  0  0  0  0  0  0  0  0  0  0  0
    2.5404    1.5989   -0.5392 N   0  0  0  0  0  0  0  0  0  0  0  0
   -2.0288    2.8119    1.2413 N   0  0  0  0  0  0  0  0  0  0  0  0
    3.2638   -1.4997    0.7866 C   0  0  1  0  0  0  0  0  0  0  0  0
    3.9823   -1.2383   -0.5255 C   0  0  1  0  0  0  0  0  0  0  0  0
    4.5250    0.1845   -0.3970 C   0  0  1  0  0  0  0  0  0  0  0  0
    4.0293   -0.6022    1.7452 C   0  0  0  0  0  0  0  0  0  0  0  0
    3.7466    1.2077   -1.2100 C   0  0  0  0  0  0  0  0  0  0  0  0
    1.0339   -2.1881    0.1958 C   0  0  0  0  0  0  0  0  0  0  0  0
   -0.4164   -1.7944    0.1039 C   0  0  0  0  0  0  0  0  0  0  0  0
    1.2769    1.4153   -1.0928 C   0  0  0  0  0  0  0  0  0  0  0  0
   -1.2007   -1.7476    1.2565 C   0  0  0  0  0  0  0  0  0  0  0  0
   -0.9757   -1.4763   -1.1337 C   0  0  0  0  0  0  0  0  0  0  0  0
   -3.1036   -1.0648   -0.0663 C   0  0  0  0  0  0  0  0  0  0  0  0
   -2.5442   -1.3828    1.1715 C   0  0  0  0  0  0  0  0  0  0  0  0
   -2.3193   -1.1116   -1.2188 C   0  0  0  0  0  0  0  0  0  0  0  0
    0.1291    1.8984   -0.2827 C   0  0  0  0  0  0  0  0  0  0  0  0
   -5.6480   -2.1392   -0.4249 C   0  0  0  0  0  0  0  0  0  0  0  0
   -1.0513    2.2869   -0.9066 C   0  0  0  0  0  0  0  0  0  0  0  0
    0.2317    1.9660    1.1023 C   0  0  0  0  0  0  0  0  0  0  0  0
   -2.0914    2.7322   -0.1068 C   0  0  0  0  0  0  0  0  0  0  0  0
   -0.8658    2.4256    1.8123 C   0  0  0  0  0  0  0  0  0  0  0  0
    3.3549   -2.5357    1.1355 H   0  0  0  0  0  0  0  0  0  0  0  0
    3.3714   -1.3994   -1.4190 H   0  0  0  0  0  0  0  0  0  0  0  0
    5.5809    0.2260   -0.6892 H   0  0  0  0  0  0  0  0  0  0  0  0
    3.4560   -0.2853    2.6222 H   0  0  0  0  0  0  0  0  0  0  0  0
    4.9381   -1.1006    2.1026 H   0  0  0  0  0  0  0  0  0  0  0  0
    3.5534    0.8570   -2.2287 H   0  0  0  0  0  0  0  0  0  0  0  0
    4.3412    2.1255   -1.2856 H   0  0  0  0  0  0  0  0  0  0  0  0
    1.5297   -0.8727    1.6566 H   0  0  0  0  0  0  0  0  0  0  0  0
    1.1087   -3.0768    0.8366 H   0  0  0  0  0  0  0  0  0  0  0  0
    1.3859   -2.4954   -0.7966 H   0  0  0  0  0  0  0  0  0  0  0  0
    5.5526   -1.9591   -1.4383 H   0  0  0  0  0  0  0  0  0  0  0  0
    2.6480    2.0958    0.3386 H   0  0  0  0  0  0  0  0  0  0  0  0
   -0.7765   -1.9943    2.2262 H   0  0  0  0  0  0  0  0  0  0  0  0
   -0.3784   -1.5135   -2.0406 H   0  0  0  0  0  0  0  0  0  0  0  0
   -3.1380   -1.3576    2.0808 H   0  0  0  0  0  0  0  0  0  0  0  0
   -2.7352   -0.8741   -2.1938 H   0  0  0  0  0  0  0  0  0  0  0  0
   -6.7146   -1.9186   -0.5046 H   0  0  0  0  0  0  0  0  0  0  0  0
   -5.2928   -2.5979   -1.3496 H   0  0  0  0  0  0  0  0  0  0  0  0
   -5.4660   -2.7946    0.4290 H   0  0  0  0  0  0  0  0  0  0  0  0
   -1.1716    2.2521   -1.9840 H   0  0  0  0  0  0  0  0  0  0  0  0
    1.1147    1.6593    1.6506 H   0  0  0  0  0  0  0  0  0  0  0  0
   -3.0336    3.0452   -0.5443 H   0  0  0  0  0  0  0  0  0  0  0  0
   -0.8393    2.4916    2.8950 H   0  0  0  0  0  0  0  0  0  0  0  0
  1  5  2  0  0  0  0
  1  6  2  0  0  0  0
  1 20  1  0  0  0  0
  1 24  1  0  0  0  0
  2 12  1  0  0  0  0
  2 13  1  0  0  0  0
  3 11  1  0  0  0  0
  3 39  1  0  0  0  0
  4 17  2  0  0  0  0
  7 10  1  0  0  0  0
  7 15  1  0  0  0  0
  7 36  1  0  0  0  0
  8 14  1  0  0  0  0
  8 17  1  0  0  0  0
  8 40  1  0  0  0  0
  9 27  2  0  0  0  0
  9 28  1  0  0  0  0
 10 11  1  0  0  0  0
 10 13  1  0  0  0  0
 10 29  1  0  0  0  0
 11 12  1  0  0  0  0
 11 30  1  0  0  0  0
 12 14  1  0  0  0  0
 12 31  1  0  0  0  0
 13 32  1  0  0  0  0
 13 33  1  0  0  0  0
 14 34  1  0  0  0  0
 14 35  1  0  0  0  0
 15 16  1  0  0  0  0
 15 37  1  0  0  0  0
 15 38  1  0  0  0  0
 16 18  2  0  0  0  0
 16 19  1  0  0  0  0
 17 23  1  0  0  0  0
 18 21  1  0  0  0  0
 18 41  1  0  0  0  0
 19 22  2  0  0  0  0
 19 42  1  0  0  0  0
 20 21  2  0  0  0  0
 20 22  1  0  0  0  0
 21 43  1  0  0  0  0
 22 44  1  0  0  0  0
 23 25  2  0  0  0  0
 23 26  1  0  0  0  0
 24 45  1  0  0  0  0
 24 46  1  0  0  0  0
 24 47  1  0  0  0  0
 25 27  1  0  0  0  0
 25 48  1  0  0  0  0
 26 28  2  0  0  0  0
 26 49  1  0  0  0  0
 27 50  1  0  0  0  0
 28 51  1  0  0  0  0
M  END
> <PUBCHEM_COMPOUND_CID>
75536798

> <PUBCHEM_CONFORMER_RMSD>
1

> <PUBCHEM_CONFORMER_DIVERSEORDER>
3
13
81
149
123
48
172
87
183
166
156
202
191
142
132
96
176
11
139
45
150
91
180
15
152
28
179
41
213
1
197
167
173
159
112
190
155
209
30
174
75
214
135
114
201
157
60
44
153
93
151
72
49
171
25
163
175
68
53
39
74
17
160
154
43
61
205
196
105
192
104
147
113
54
138
115
177
38
200
178
63
144
212
119
145
148
22
69
184
204
168
32
6
107
62
24
97
84
4
77
116
170
100
90
19
76
130
187
57
34
198
67
14
66
199
42
64
86
208
161
52
137
158
56
36
79
210
20
207
146
40
99
186
164
162
141
215
102
10
47
127
134
50
16
111
8
140
109
120
21
133
206
85
12
29
94
182
27
193
143
95
131
9
117
71
55
136
181
46
189
121
82
118
92
7
203
124
195
88
33
37
65
70
83
126
80
194
89
128
73
35
26
23
125
108
129
78
165
211
122
31
51
98
2
106
59
58
103
101
185
188
110
169
5
18

> <PUBCHEM_MMFF94_PARTIAL_CHARGES>
39
1 1.2
10 0.27
11 0.28
12 0.28
13 0.28
14 0.3
15 0.41
16 -0.14
17 0.54
18 -0.15
19 -0.15
2 -0.56
20 -0.01
21 -0.15
22 -0.15
23 0.09
24 0.11
25 -0.15
26 -0.15
27 0.16
28 0.16
3 -0.68
36 0.36
39 0.4
4 -0.57
40 0.37
41 0.15
42 0.15
43 0.15
44 0.15
48 0.15
49 0.15
5 -0.65
50 0.15
51 0.15
6 -0.65
7 -0.9
8 -0.73
9 -0.62

> <PUBCHEM_EFFECTIVE_ROTOR_COUNT>
9

> <PUBCHEM_PHARMACOPHORE_FEATURES>
13
1 2 acceptor
1 3 acceptor
1 3 donor
1 4 acceptor
1 5 acceptor
1 6 acceptor
1 7 cation
1 7 donor
1 8 donor
1 9 acceptor
5 2 10 11 12 13 rings
6 16 18 19 20 21 22 rings
6 9 23 25 26 27 28 rings

> <PUBCHEM_HEAVY_ATOM_COUNT>
28

> <PUBCHEM_ATOM_DEF_STEREO_COUNT>
3

> <PUBCHEM_ATOM_UDEF_STEREO_COUNT>
0

> <PUBCHEM_BOND_DEF_STEREO_COUNT>
0

> <PUBCHEM_BOND_UDEF_STEREO_COUNT>
0

> <PUBCHEM_ISOTOPIC_ATOM_COUNT>
0

> <PUBCHEM_COMPONENT_COUNT>
1

> <PUBCHEM_CACTVS_TAUTO_COUNT>
2

> <PUBCHEM_CONFORMER_ID>
0480999E00000003

> <PUBCHEM_MMFF94_ENERGY>
59.8171

> <PUBCHEM_FEATURE_SELFOVERLAP>
65.993

> <PUBCHEM_SHAPE_FINGERPRINT>
104564 63 18411423899234514224
11513181 2 18199757942089933447
12107698 1 18411700946606858118
12166972 35 18187368757148135735
12422481 6 18196111962169933961
12467345 10 18186802456914611933
12788726 201 18341344356664473728
13140716 1 18191579968297790290
14251757 17 17385990772216048535
14464042 87 18341618113800614385
14787075 74 18260264174920610835
14955137 171 18200879577700677927
16752209 62 18412270519056451844
17349148 13 18335709325259226103
17357779 13 18340758282627677739
21279426 13 18334289830199477677
23557571 272 18059296461275476118
23559900 14 18266743670005258404
24893992 56 18259704515861223347
2818148 4 17901669259506830978
3027735 51 18339645521057675923
338550 245 18261684670633899829
345986 75 18337940234193910427
469060 322 17677051231152159238
8509985 295 18339080505335521263

> <PUBCHEM_SHAPE_MULTIPOLES>
535.79
10.21
3.25
1.61
2.14
1.5
-0.11
-5.01
0.65
0.78
-0.45
-0.2
0.43
-0.74

> <PUBCHEM_SHAPE_SELFOVERLAP>
1124.343

> <PUBCHEM_SHAPE_VOLUME>
304.3

> <PUBCHEM_COORDINATE_TYPE>
2
5
10

$$$$
