11883068
  -OEChem-12032416133D

 70 74  0     1  0  0  0  0  0999 V2000
   -0.0697   -3.0947    0.2660 S   0  0  0  0  0  0  0  0  0  0  0  0
    7.0653    0.0566   -0.6218 O   0  0  0  0  0  0  0  0  0  0  0  0
    6.9075   -1.6866    1.0155 O   0  0  0  0  0  0  0  0  0  0  0  0
   -0.7437    1.8447   -1.6554 O   0  0  0  0  0  0  0  0  0  0  0  0
   -3.7376   -0.3488   -0.3447 O   0  0  0  0  0  0  0  0  0  0  0  0
   -4.9334   -3.6493    0.1707 O   0  0  0  0  0  0  0  0  0  0  0  0
   -0.8447   -0.6597   -0.1381 N   0  0  0  0  0  0  0  0  0  0  0  0
   -1.1663    3.4164    0.0037 N   0  0  0  0  0  0  0  0  0  0  0  0
   -2.5679   -2.3378    0.0175 N   0  0  0  0  0  0  0  0  0  0  0  0
    2.8230    0.4441    0.3063 C   0  0  2  0  0  0  0  0  0  0  0  0
    3.3882   -0.9256   -0.2766 C   0  0  1  0  0  0  0  0  0  0  0  0
    4.9519   -1.1289   -0.2383 C   0  0  1  0  0  0  0  0  0  0  0  0
    1.3254    0.6238   -0.2215 C   0  0  1  0  0  0  0  0  0  0  0  0
    3.6750    1.6235   -0.2304 C   0  0  0  0  0  0  0  0  0  0  0  0
    5.6487    0.1581   -0.7641 C   0  0  1  0  0  0  0  0  0  0  0  0
    2.5840   -2.1463    0.2582 C   0  0  0  0  0  0  0  0  0  0  0  0
    5.1751    1.4267   -0.0637 C   0  0  0  0  0  0  0  0  0  0  0  0
    2.8322    0.4882    1.8542 C   0  0  0  0  0  0  0  0  0  0  0  0
    0.5353   -0.6487   -0.0534 C   0  0  0  0  0  0  0  0  0  0  0  0
    5.5118   -1.5330    1.1435 C   0  0  0  0  0  0  0  0  0  0  0  0
    5.3361   -2.2886   -1.2003 C   0  0  0  0  0  0  0  0  0  0  0  0
    1.1206   -1.8830    0.1426 C   0  0  0  0  0  0  0  0  0  0  0  0
    0.5813    1.8291    0.3690 C   0  0  0  0  0  0  0  0  0  0  0  0
   -0.5010    2.3355   -0.5562 C   0  0  0  0  0  0  0  0  0  0  0  0
   -1.2725   -1.8932    0.0228 C   0  0  0  0  0  0  0  0  0  0  0  0
   -2.2467    4.1054   -0.6579 C   0  0  0  0  0  0  0  0  0  0  0  0
   -2.3430    5.5590   -0.2126 C   0  0  0  0  0  0  0  0  0  0  0  0
   -3.6066    3.5409   -0.2643 C   0  0  0  0  0  0  0  0  0  0  0  0
   -3.1118    5.5067    1.1047 C   0  0  0  0  0  0  0  0  0  0  0  0
   -3.9550    4.2323    1.0528 C   0  0  0  0  0  0  0  0  0  0  0  0
   -3.7363   -1.5642   -0.1629 C   0  0  0  0  0  0  0  0  0  0  0  0
   -5.0017   -2.3143   -0.0723 C   0  0  0  0  0  0  0  0  0  0  0  0
   -6.3116   -1.9113   -0.1910 C   0  0  0  0  0  0  0  0  0  0  0  0
   -7.0986   -3.0736   -0.0093 C   0  0  0  0  0  0  0  0  0  0  0  0
   -6.2135   -4.1039    0.2076 C   0  0  0  0  0  0  0  0  0  0  0  0
    3.1527   -0.8717   -1.3539 H   0  0  0  0  0  0  0  0  0  0  0  0
    1.4091    0.7654   -1.3095 H   0  0  0  0  0  0  0  0  0  0  0  0
    3.4670    1.7707   -1.2985 H   0  0  0  0  0  0  0  0  0  0  0  0
    3.3996    2.5609    0.2659 H   0  0  0  0  0  0  0  0  0  0  0  0
    5.4470    0.2584   -1.8389 H   0  0  0  0  0  0  0  0  0  0  0  0
    2.8288   -2.3476    1.3064 H   0  0  0  0  0  0  0  0  0  0  0  0
    2.8345   -3.0437   -0.3172 H   0  0  0  0  0  0  0  0  0  0  0  0
    5.4606    1.4158    0.9939 H   0  0  0  0  0  0  0  0  0  0  0  0
    5.6999    2.2919   -0.4890 H   0  0  0  0  0  0  0  0  0  0  0  0
    2.2446   -0.3185    2.3011 H   0  0  0  0  0  0  0  0  0  0  0  0
    3.8342    0.4400    2.2754 H   0  0  0  0  0  0  0  0  0  0  0  0
    2.4114    1.4289    2.2261 H   0  0  0  0  0  0  0  0  0  0  0  0
    5.3415   -0.7802    1.9090 H   0  0  0  0  0  0  0  0  0  0  0  0
    5.0931   -2.4825    1.4906 H   0  0  0  0  0  0  0  0  0  0  0  0
    6.4190   -2.3674   -1.3481 H   0  0  0  0  0  0  0  0  0  0  0  0
    4.8931   -2.1388   -2.1917 H   0  0  0  0  0  0  0  0  0  0  0  0
    4.9921   -3.2588   -0.8270 H   0  0  0  0  0  0  0  0  0  0  0  0
    1.2602    2.6731    0.5277 H   0  0  0  0  0  0  0  0  0  0  0  0
    0.1280    1.5807    1.3370 H   0  0  0  0  0  0  0  0  0  0  0  0
    7.4582    0.8595   -1.0045 H   0  0  0  0  0  0  0  0  0  0  0  0
    7.2512   -1.9503    1.8859 H   0  0  0  0  0  0  0  0  0  0  0  0
   -0.9164    3.7110    0.9437 H   0  0  0  0  0  0  0  0  0  0  0  0
   -2.0925    4.0333   -1.7399 H   0  0  0  0  0  0  0  0  0  0  0  0
   -1.3689    6.0451   -0.0989 H   0  0  0  0  0  0  0  0  0  0  0  0
   -2.9235    6.1327   -0.9457 H   0  0  0  0  0  0  0  0  0  0  0  0
   -4.3521    3.8162   -1.0205 H   0  0  0  0  0  0  0  0  0  0  0  0
   -3.6153    2.4514   -0.1669 H   0  0  0  0  0  0  0  0  0  0  0  0
   -2.6790   -3.3376    0.1675 H   0  0  0  0  0  0  0  0  0  0  0  0
   -2.4164    5.4572    1.9506 H   0  0  0  0  0  0  0  0  0  0  0  0
   -3.7301    6.3995    1.2424 H   0  0  0  0  0  0  0  0  0  0  0  0
   -5.0260    4.4520    1.1117 H   0  0  0  0  0  0  0  0  0  0  0  0
   -3.7062    3.5865    1.9026 H   0  0  0  0  0  0  0  0  0  0  0  0
   -6.6606   -0.9068   -0.3843 H   0  0  0  0  0  0  0  0  0  0  0  0
   -8.1759   -3.1507   -0.0333 H   0  0  0  0  0  0  0  0  0  0  0  0
   -6.3285   -5.1616    0.3942 H   0  0  0  0  0  0  0  0  0  0  0  0
  1 22  1  0  0  0  0
  1 25  1  0  0  0  0
  2 15  1  0  0  0  0
  2 55  1  0  0  0  0
  3 20  1  0  0  0  0
  3 56  1  0  0  0  0
  4 24  2  0  0  0  0
  5 31  2  0  0  0  0
  6 32  1  0  0  0  0
  6 35  1  0  0  0  0
  7 19  1  0  0  0  0
  7 25  2  0  0  0  0
  8 24  1  0  0  0  0
  8 26  1  0  0  0  0
  8 57  1  0  0  0  0
  9 25  1  0  0  0  0
  9 31  1  0  0  0  0
  9 63  1  0  0  0  0
 10 11  1  0  0  0  0
 10 13  1  0  0  0  0
 10 14  1  0  0  0  0
 10 18  1  0  0  0  0
 11 12  1  0  0  0  0
 11 16  1  0  0  0  0
 11 36  1  0  0  0  0
 12 15  1  0  0  0  0
 12 20  1  0  0  0  0
 12 21  1  0  0  0  0
 13 19  1  0  0  0  0
 13 23  1  0  0  0  0
 13 37  1  0  0  0  0
 14 17  1  0  0  0  0
 14 38  1  0  0  0  0
 14 39  1  0  0  0  0
 15 17  1  0  0  0  0
 15 40  1  0  0  0  0
 16 22  1  0  0  0  0
 16 41  1  0  0  0  0
 16 42  1  0  0  0  0
 17 43  1  0  0  0  0
 17 44  1  0  0  0  0
 18 45  1  0  0  0  0
 18 46  1  0  0  0  0
 18 47  1  0  0  0  0
 19 22  2  0  0  0  0
 20 48  1  0  0  0  0
 20 49  1  0  0  0  0
 21 50  1  0  0  0  0
 21 51  1  0  0  0  0
 21 52  1  0  0  0  0
 23 24  1  0  0  0  0
 23 53  1  0  0  0  0
 23 54  1  0  0  0  0
 26 27  1  0  0  0  0
 26 28  1  0  0  0  0
 26 58  1  0  0  0  0
 27 29  1  0  0  0  0
 27 59  1  0  0  0  0
 27 60  1  0  0  0  0
 28 30  1  0  0  0  0
 28 61  1  0  0  0  0
 28 62  1  0  0  0  0
 29 30  1  0  0  0  0
 29 64  1  0  0  0  0
 29 65  1  0  0  0  0
 30 66  1  0  0  0  0
 30 67  1  0  0  0  0
 31 32  1  0  0  0  0
 32 33  2  0  0  0  0
 33 34  1  0  0  0  0
 33 68  1  0  0  0  0
 34 35  2  0  0  0  0
 34 69  1  0  0  0  0
 35 70  1  0  0  0  0
M  END
> <PUBCHEM_COMPOUND_CID>
11883068

> <PUBCHEM_CONFORMER_RMSD>
1

> <PUBCHEM_CONFORMER_DIVERSEORDER>
1
20
28
11
32
35
23
15
29
13
31
30
24
9
18
37
21
36
19
12
22
7
6
25
5
10
38
26
16
34
14
33
27
17
8
3
2
4

> <PUBCHEM_MMFF94_PARTIAL_CHARGES>
31
1 -0.08
13 0.18
15 0.28
16 0.18
19 0.05
2 -0.68
20 0.28
22 -0.14
23 0.06
24 0.57
25 0.44
26 0.3
3 -0.68
31 0.71
32 0.05
33 -0.15
34 -0.15
35 -0.01
4 -0.57
5 -0.57
55 0.4
56 0.4
57 0.37
6 -0.28
63 0.37
68 0.15
69 0.15
7 -0.57
70 0.15
8 -0.73
9 -0.49

> <PUBCHEM_EFFECTIVE_ROTOR_COUNT>
10.2

> <PUBCHEM_PHARMACOPHORE_FEATURES>
14
1 2 acceptor
1 2 donor
1 3 acceptor
1 3 donor
1 4 acceptor
1 5 acceptor
1 6 acceptor
1 8 donor
1 9 donor
5 1 7 19 22 25 rings
5 26 27 28 29 30 rings
5 6 32 33 34 35 rings
6 10 11 12 14 15 17 rings
6 10 11 13 16 19 22 rings

> <PUBCHEM_HEAVY_ATOM_COUNT>
35

> <PUBCHEM_ATOM_DEF_STEREO_COUNT>
5

> <PUBCHEM_ATOM_UDEF_STEREO_COUNT>
0

> <PUBCHEM_BOND_DEF_STEREO_COUNT>
0

> <PUBCHEM_BOND_UDEF_STEREO_COUNT>
0

> <PUBCHEM_ISOTOPIC_ATOM_COUNT>
0

> <PUBCHEM_COMPONENT_COUNT>
1

> <PUBCHEM_CACTVS_TAUTO_COUNT>
6

> <PUBCHEM_CONFORMER_ID>
00B5523C00000001

> <PUBCHEM_MMFF94_ENERGY>
89.2513

> <PUBCHEM_FEATURE_SELFOVERLAP>
71.195

> <PUBCHEM_SHAPE_FINGERPRINT>
10050765 1 18266460898101346686
10411042 1 18338236085080372423
10675989 125 17903081375770749740
1100329 8 17616809934065196890
11331351 85 18269836570549234271
12166972 35 17894910793094863263
12516196 113 18337107998507934823
12788726 201 18334007315545321144
12977781 61 17772487693565854542
13347071 3 18343304761113029241
13383665 225 18263385680232069900
13540713 4 18058448717322145982
13540713 5 18042122064739654514
13590594 115 18337961194298888027
13835254 42 18340205292703812089
138480 1 15744724099327625461
14028597 1 17750211730063606456
14068700 675 18335703883488306525
14394314 77 18339089310515038785
14681490 219 18409729603451008723
14790565 3 17690564087108035668
14849402 71 17977673335936568771
14955137 171 18192995048484443599
15347591 1 18339362947587617998
15400415 2 17690280404708603961
15419008 47 18130785702549243683
15483637 11 18338799992368246121
15629462 23 18261399944599107363
15927050 60 17977668610861152627
15968369 153 18129641089433299853
16087824 20 18410010993657183605
16090146 7 17095818680358507466
16992752 21 18338528529008003276
16993438 75 18263370196848658649
18365409 1 18264493884779174989
18681886 176 18196367237873272427
19301679 30 18411420622022155775
19319366 153 17261580782784481901
20775438 99 17694765338217533982
21133410 38 17552925028265727257
21307412 95 17481727264814966126
21772528 278 17981888545627488685
21792965 96 18125750936153826668
22223350 30 18051952750631808562
23559900 14 18047748484766953347
23576562 1 18261970565960101444
23845131 108 17905601104328842909
244849 19 17631149958378135312
24771293 8 17696458955823499872
24771750 20 17106789847692884101
283562 15 18334012778670199539
3103668 31 18334290938839610461
350125 39 18410292485043363632
4015057 19 18047749597284951715
59520647 119 18337107849244551669
653340 110 18411413973570543505
6700243 42 17914368807226393749
9777508 108 18195802973458742305

> <PUBCHEM_SHAPE_MULTIPOLES>
679.84
16.22
7.3
1.02
2.86
9.76
0.15
-14.35
0.11
-16.2
0.75
0.74
0.37
-0.59

> <PUBCHEM_SHAPE_SELFOVERLAP>
1445.86

> <PUBCHEM_SHAPE_VOLUME>
381.8

> <PUBCHEM_COORDINATE_TYPE>
2
5
10

$$$$
