75536828
  -OEChem-12032416343D

 39 40  0     1  0  0  0  0  0999 V2000
    5.6389    0.6476   -0.2245 S   0  0  0  0  0  0  0  0  0  0  0  0
    1.7055    0.4574    1.1706 O   0  0  0  0  0  0  0  0  0  0  0  0
    0.5811   -2.4544   -0.6078 O   0  0  0  0  0  0  0  0  0  0  0  0
    6.8023    0.5631    0.6365 O   0  0  0  0  0  0  0  0  0  0  0  0
    5.1000    1.9348   -0.6193 O   0  0  0  0  0  0  0  0  0  0  0  0
   -1.6460   -0.3190   -0.0109 N   0  0  0  0  0  0  0  0  0  0  0  0
    4.3705   -0.2932    0.4216 N   0  0  0  0  0  0  0  0  0  0  0  0
   -6.5128    0.6282   -0.8549 N   0  0  0  0  0  0  0  0  0  0  0  0
   -0.3646   -0.5728    0.6273 C   0  0  1  0  0  0  0  0  0  0  0  0
    0.7030   -1.0734   -0.3280 C   0  0  1  0  0  0  0  0  0  0  0  0
    1.9693   -0.7632    0.4588 C   0  0  1  0  0  0  0  0  0  0  0  0
    0.2858    0.6888    1.1708 C   0  0  0  0  0  0  0  0  0  0  0  0
    3.1950   -0.5901   -0.4203 C   0  0  0  0  0  0  0  0  0  0  0  0
   -2.7059   -0.1715    0.9794 C   0  0  0  0  0  0  0  0  0  0  0  0
   -4.0384    0.1085    0.3370 C   0  0  0  0  0  0  0  0  0  0  0  0
    5.9927   -0.2590   -1.7127 C   0  0  0  0  0  0  0  0  0  0  0  0
   -4.3214    1.3760   -0.1598 C   0  0  0  0  0  0  0  0  0  0  0  0
   -4.9912   -0.8994    0.2384 C   0  0  0  0  0  0  0  0  0  0  0  0
   -5.5620    1.5825   -0.7412 C   0  0  0  0  0  0  0  0  0  0  0  0
   -6.2018   -0.5911   -0.3609 C   0  0  0  0  0  0  0  0  0  0  0  0
   -0.4800   -1.3174    1.4277 H   0  0  0  0  0  0  0  0  0  0  0  0
    0.6779   -0.5177   -1.2737 H   0  0  0  0  0  0  0  0  0  0  0  0
    2.1641   -1.5426    1.2072 H   0  0  0  0  0  0  0  0  0  0  0  0
    0.1011    1.5609    0.5330 H   0  0  0  0  0  0  0  0  0  0  0  0
   -0.0416    0.9291    2.1868 H   0  0  0  0  0  0  0  0  0  0  0  0
    3.0280    0.2407   -1.1148 H   0  0  0  0  0  0  0  0  0  0  0  0
    3.3864   -1.5028   -0.9936 H   0  0  0  0  0  0  0  0  0  0  0  0
   -1.8737   -1.1026   -0.6237 H   0  0  0  0  0  0  0  0  0  0  0  0
   -2.4837    0.6527    1.6692 H   0  0  0  0  0  0  0  0  0  0  0  0
   -2.7830   -1.0771    1.5953 H   0  0  0  0  0  0  0  0  0  0  0  0
    0.6022   -2.9401    0.2341 H   0  0  0  0  0  0  0  0  0  0  0  0
    4.6487   -1.0788    1.0246 H   0  0  0  0  0  0  0  0  0  0  0  0
    5.1371   -0.2122   -2.3876 H   0  0  0  0  0  0  0  0  0  0  0  0
    6.2360   -1.2904   -1.4507 H   0  0  0  0  0  0  0  0  0  0  0  0
    6.8563    0.2101   -2.1902 H   0  0  0  0  0  0  0  0  0  0  0  0
   -3.6014    2.1850   -0.0989 H   0  0  0  0  0  0  0  0  0  0  0  0
   -4.8047   -1.9001    0.6129 H   0  0  0  0  0  0  0  0  0  0  0  0
   -5.8320    2.5533   -1.1438 H   0  0  0  0  0  0  0  0  0  0  0  0
   -6.9782   -1.3422   -0.4628 H   0  0  0  0  0  0  0  0  0  0  0  0
  1  4  2  0  0  0  0
  1  5  2  0  0  0  0
  1  7  1  0  0  0  0
  1 16  1  0  0  0  0
  2 11  1  0  0  0  0
  2 12  1  0  0  0  0
  3 10  1  0  0  0  0
  3 31  1  0  0  0  0
  6  9  1  0  0  0  0
  6 14  1  0  0  0  0
  6 28  1  0  0  0  0
  7 13  1  0  0  0  0
  7 32  1  0  0  0  0
  8 19  2  0  0  0  0
  8 20  1  0  0  0  0
  9 10  1  0  0  0  0
  9 12  1  0  0  0  0
  9 21  1  0  0  0  0
 10 11  1  0  0  0  0
 10 22  1  0  0  0  0
 11 13  1  0  0  0  0
 11 23  1  0  0  0  0
 12 24  1  0  0  0  0
 12 25  1  0  0  0  0
 13 26  1  0  0  0  0
 13 27  1  0  0  0  0
 14 15  1  0  0  0  0
 14 29  1  0  0  0  0
 14 30  1  0  0  0  0
 15 17  2  0  0  0  0
 15 18  1  0  0  0  0
 16 33  1  0  0  0  0
 16 34  1  0  0  0  0
 16 35  1  0  0  0  0
 17 19  1  0  0  0  0
 17 36  1  0  0  0  0
 18 20  2  0  0  0  0
 18 37  1  0  0  0  0
 19 38  1  0  0  0  0
 20 39  1  0  0  0  0
M  END
> <PUBCHEM_COMPOUND_CID>
75536828

> <PUBCHEM_CONFORMER_RMSD>
1

> <PUBCHEM_CONFORMER_DIVERSEORDER>
1
80
73
60
19
71
58
9
46
34
66
39
61
44
91
23
35
62
82
93
76
70
88
2
42
8
40
25
94
64
45
31
41
59
52
20
18
72
53
83
69
47
32
87
13
28
79
67
30
68
21
16
26
77
43
56
37
14
15
92
38
4
57
22
86
63
90
5
7
36
84
33
54
78
50
65
29
51
12
75
81
24
27
48
55
74
3
89
85
6
17
49
10
11

> <PUBCHEM_MMFF94_PARTIAL_CHARGES>
27
1 1.33
10 0.28
11 0.28
12 0.28
13 0.36
14 0.41
15 -0.14
16 0.11
17 -0.15
18 -0.15
19 0.16
2 -0.56
20 0.16
28 0.36
3 -0.68
31 0.4
32 0.42
36 0.15
37 0.15
38 0.15
39 0.15
4 -0.65
5 -0.65
6 -0.9
7 -0.91
8 -0.62
9 0.27

> <PUBCHEM_EFFECTIVE_ROTOR_COUNT>
7

> <PUBCHEM_PHARMACOPHORE_FEATURES>
11
1 2 acceptor
1 3 acceptor
1 3 donor
1 4 acceptor
1 5 acceptor
1 6 cation
1 6 donor
1 7 donor
1 8 acceptor
5 2 9 10 11 12 rings
6 8 15 17 18 19 20 rings

> <PUBCHEM_HEAVY_ATOM_COUNT>
20

> <PUBCHEM_ATOM_DEF_STEREO_COUNT>
3

> <PUBCHEM_ATOM_UDEF_STEREO_COUNT>
0

> <PUBCHEM_BOND_DEF_STEREO_COUNT>
0

> <PUBCHEM_BOND_UDEF_STEREO_COUNT>
0

> <PUBCHEM_ISOTOPIC_ATOM_COUNT>
0

> <PUBCHEM_COMPONENT_COUNT>
1

> <PUBCHEM_CACTVS_TAUTO_COUNT>
1

> <PUBCHEM_CONFORMER_ID>
048099BC00000001

> <PUBCHEM_MMFF94_ENERGY>
37.5422

> <PUBCHEM_FEATURE_SELFOVERLAP>
55.84

> <PUBCHEM_SHAPE_FINGERPRINT>
10 15 12973893610563037237
10087517 78 17386001733410789117
10591671 39 18410016563343445711
11089746 13 16588024632247667255
117890 112 17530686511153062768
12236239 1 16008749121481857315
12516196 113 13039185905503242714
12596602 18 13912614878528927836
12670543 26 17989212503720803956
12714333 28 18333732416031625946
13288520 33 13110959830257820491
13533116 47 16515955983491499344
13668630 136 16056870348142672653
13862211 1 15195288599314730294
13968360 50 18271524217576711790
14123256 10 17917711305247249825
1420 363 15770058336936214311
14251718 22 18410292515028935507
14251752 14 18343581824382847270
14251764 18 13045954524568564979
14528608 73 18411138039022289348
15048467 5 17312822680018589976
15183329 4 18408327674717914056
15348495 7 11458723727872094629
15716309 27 12679461984609606385
15961568 22 18113337483703757165
17834072 8 17346596391436730682
200 152 17131827647850478235
20281389 69 17530679905224674140
21150785 3 15195283157870871120
21267235 1 17131834292106927571
21521239 73 16988847155299967686
21637258 2 13758071853354936500
21641784 216 18130241375469542376
22224240 67 13479134613784683385
23035841 295 13830131685229061887
23402539 116 17749106703555584891
23402655 69 18201997690868197123
23522609 53 13613694019381663066
23536379 177 18040432179085169706
23559900 14 16844998121894150579
26918003 58 10881404218997141311
2767999 5 17240482511292019573
2838139 119 18040149634450982605
2916195 48 17821729446543822529
300161 21 16950277391414956019
33382 64 12319464272768471268
34797466 226 18271536367563743405
351380 3 14620792682816793085
3759504 43 18335423508150447554
465052 167 8935002577468344328
5207 217 18202283619166908946

> <PUBCHEM_SHAPE_MULTIPOLES>
377.02
18.47
1.51
1.11
2.83
0.02
0.09
-5.96
5.39
-0.21
0.32
0.74
-0.06
0.58

> <PUBCHEM_SHAPE_SELFOVERLAP>
759.087

> <PUBCHEM_SHAPE_VOLUME>
222.9

> <PUBCHEM_COORDINATE_TYPE>
2
5
10

$$$$
