45783844
  -OEChem-12032416353D

 48 51  0     1  0  0  0  0  0999 V2000
    8.5336   -0.7602    0.5951 F   0  0  0  0  0  0  0  0  0  0  0  0
    7.0249    0.1110   -0.7242 F   0  0  0  0  0  0  0  0  0  0  0  0
    7.3928    0.9746    1.2766 F   0  0  0  0  0  0  0  0  0  0  0  0
   -0.7329   -1.4434   -1.7106 O   0  0  0  0  0  0  0  0  0  0  0  0
   -4.2861   -1.0985   -1.6947 O   0  0  0  0  0  0  0  0  0  0  0  0
   -7.9202   -2.9698    1.0217 O   0  0  0  0  0  0  0  0  0  0  0  0
   -6.8458   -1.5495    2.4334 O   0  0  0  0  0  0  0  0  0  0  0  0
    6.3601   -1.0607    1.1241 O   0  0  0  0  0  0  0  0  0  0  0  0
   -3.0185    0.3923   -0.4291 N   0  0  0  0  0  0  0  0  0  0  0  0
   -2.0636    3.4346    1.5077 N   0  0  0  0  0  0  0  0  0  0  0  0
   -1.4126    4.2273   -0.4770 N   0  0  0  0  0  0  0  0  0  0  0  0
    0.3706    0.2481   -0.7421 N   0  0  0  0  0  0  0  0  0  0  0  0
    0.5349   -1.9415   -1.3845 N   0  0  0  0  0  0  0  0  0  0  0  0
   -2.0369    0.6304   -1.5426 C   0  0  1  0  0  0  0  0  0  0  0  0
   -1.8836    2.1514   -1.8503 C   0  0  0  0  0  0  0  0  0  0  0  0
   -2.7675    1.0682    0.8744 C   0  0  0  0  0  0  0  0  0  0  0  0
   -2.2527    2.4260    0.6108 C   0  0  0  0  0  0  0  0  0  0  0  0
   -1.8435    2.9362   -0.5966 C   0  0  0  0  0  0  0  0  0  0  0  0
   -0.7458   -0.1486   -1.2988 C   0  0  0  0  0  0  0  0  0  0  0  0
   -4.0582   -0.5263   -0.6260 C   0  0  0  0  0  0  0  0  0  0  0  0
   -4.9407   -0.8113    0.5639 C   0  0  0  0  0  0  0  0  0  0  0  0
   -1.5571    4.4988    0.8047 C   0  0  0  0  0  0  0  0  0  0  0  0
   -6.0070   -1.8184    0.1832 C   0  0  0  0  0  0  0  0  0  0  0  0
    1.1261   -0.8857   -0.8173 C   0  0  0  0  0  0  0  0  0  0  0  0
    2.4698   -0.9301   -0.3172 C   0  0  0  0  0  0  0  0  0  0  0  0
   -6.9507   -2.0739    1.3322 C   0  0  0  0  0  0  0  0  0  0  0  0
    3.0363    0.2042    0.2642 C   0  0  0  0  0  0  0  0  0  0  0  0
    3.2106   -2.1080   -0.4140 C   0  0  0  0  0  0  0  0  0  0  0  0
    4.3437    0.1608    0.7483 C   0  0  0  0  0  0  0  0  0  0  0  0
    4.5180   -2.1515    0.0701 C   0  0  0  0  0  0  0  0  0  0  0  0
    5.0845   -1.0171    0.6512 C   0  0  0  0  0  0  0  0  0  0  0  0
    7.3175   -0.1693    0.5636 C   0  0  0  0  0  0  0  0  0  0  0  0
   -2.4554    0.1926   -2.4591 H   0  0  0  0  0  0  0  0  0  0  0  0
   -2.7552    2.4865   -2.4264 H   0  0  0  0  0  0  0  0  0  0  0  0
   -0.9906    2.3374   -2.4567 H   0  0  0  0  0  0  0  0  0  0  0  0
   -2.0250    0.4687    1.4118 H   0  0  0  0  0  0  0  0  0  0  0  0
   -3.6723    1.1208    1.4815 H   0  0  0  0  0  0  0  0  0  0  0  0
   -2.2562    3.4082    2.5004 H   0  0  0  0  0  0  0  0  0  0  0  0
   -5.4247    0.1200    0.8782 H   0  0  0  0  0  0  0  0  0  0  0  0
   -4.3285   -1.1918    1.3890 H   0  0  0  0  0  0  0  0  0  0  0  0
   -1.3166    5.4361    1.2858 H   0  0  0  0  0  0  0  0  0  0  0  0
   -6.6035   -1.4497   -0.6597 H   0  0  0  0  0  0  0  0  0  0  0  0
   -5.5486   -2.7735   -0.0982 H   0  0  0  0  0  0  0  0  0  0  0  0
    2.4842    1.1363    0.3556 H   0  0  0  0  0  0  0  0  0  0  0  0
    2.8032   -3.0115   -0.8606 H   0  0  0  0  0  0  0  0  0  0  0  0
    4.7706    1.0494    1.2051 H   0  0  0  0  0  0  0  0  0  0  0  0
    5.0907   -3.0716   -0.0082 H   0  0  0  0  0  0  0  0  0  0  0  0
   -8.5212   -3.1362    1.7789 H   0  0  0  0  0  0  0  0  0  0  0  0
  1 32  1  0  0  0  0
  2 32  1  0  0  0  0
  3 32  1  0  0  0  0
  4 13  1  0  0  0  0
  4 19  1  0  0  0  0
  5 20  2  0  0  0  0
  6 26  1  0  0  0  0
  6 48  1  0  0  0  0
  7 26  2  0  0  0  0
  8 31  1  0  0  0  0
  8 32  1  0  0  0  0
  9 14  1  0  0  0  0
  9 16  1  0  0  0  0
  9 20  1  0  0  0  0
 10 17  1  0  0  0  0
 10 22  1  0  0  0  0
 10 38  1  0  0  0  0
 11 18  1  0  0  0  0
 11 22  2  0  0  0  0
 12 19  2  0  0  0  0
 12 24  1  0  0  0  0
 13 24  2  0  0  0  0
 14 15  1  0  0  0  0
 14 19  1  0  0  0  0
 14 33  1  0  0  0  0
 15 18  1  0  0  0  0
 15 34  1  0  0  0  0
 15 35  1  0  0  0  0
 16 17  1  0  0  0  0
 16 36  1  0  0  0  0
 16 37  1  0  0  0  0
 17 18  2  0  0  0  0
 20 21  1  0  0  0  0
 21 23  1  0  0  0  0
 21 39  1  0  0  0  0
 21 40  1  0  0  0  0
 22 41  1  0  0  0  0
 23 26  1  0  0  0  0
 23 42  1  0  0  0  0
 23 43  1  0  0  0  0
 24 25  1  0  0  0  0
 25 27  2  0  0  0  0
 25 28  1  0  0  0  0
 27 29  1  0  0  0  0
 27 44  1  0  0  0  0
 28 30  2  0  0  0  0
 28 45  1  0  0  0  0
 29 31  2  0  0  0  0
 29 46  1  0  0  0  0
 30 31  1  0  0  0  0
 30 47  1  0  0  0  0
M  END
> <PUBCHEM_COMPOUND_CID>
45783844

> <PUBCHEM_CONFORMER_RMSD>
1

> <PUBCHEM_CONFORMER_DIVERSEORDER>
1
30
34
39
11
15
14
42
37
25
17
22
24
2
29
41
7
31
20
6
26
33
21
35
8
12
19
27
36
32
10
3
13
23
40
4
38
18
5
28
16
9

> <PUBCHEM_MMFF94_PARTIAL_CHARGES>
39
1 -0.34
10 0.03
11 -0.57
12 -0.57
13 -0.41
14 0.48
15 0.18
16 0.48
17 -0.33
18 0.05
19 0.3
2 -0.34
20 0.57
21 0.06
22 0.04
23 0.06
24 0.46
25 0.05
26 0.66
27 -0.15
28 -0.15
29 -0.15
3 -0.34
30 -0.15
31 0.08
32 1.3
38 0.27
4 -0.02
41 0.15
44 0.15
45 0.15
46 0.15
47 0.15
48 0.5
5 -0.57
6 -0.65
7 -0.57
8 -0.36
9 -0.66

> <PUBCHEM_EFFECTIVE_ROTOR_COUNT>
8.8

> <PUBCHEM_PHARMACOPHORE_FEATURES>
12
1 10 donor
1 5 acceptor
1 6 acceptor
1 7 acceptor
1 8 acceptor
3 10 11 22 cation
3 12 13 24 cation
3 6 7 26 anion
5 10 11 17 18 22 rings
5 4 12 13 19 24 rings
6 25 27 28 29 30 31 rings
6 9 14 15 16 17 18 rings

> <PUBCHEM_HEAVY_ATOM_COUNT>
32

> <PUBCHEM_ATOM_DEF_STEREO_COUNT>
1

> <PUBCHEM_ATOM_UDEF_STEREO_COUNT>
0

> <PUBCHEM_BOND_DEF_STEREO_COUNT>
0

> <PUBCHEM_BOND_UDEF_STEREO_COUNT>
0

> <PUBCHEM_ISOTOPIC_ATOM_COUNT>
0

> <PUBCHEM_COMPONENT_COUNT>
1

> <PUBCHEM_CACTVS_TAUTO_COUNT>
2

> <PUBCHEM_CONFORMER_ID>
02BA9B2400000001

> <PUBCHEM_MMFF94_ENERGY>
67.2812

> <PUBCHEM_FEATURE_SELFOVERLAP>
61.057

> <PUBCHEM_SHAPE_FINGERPRINT>
10369192 42 16415477164589277540
10674148 151 15791730811675584821
11101153 10 18411695513431225556
11315181 36 14562537245600009276
11621639 336 11604467216357503695
12218070 45 17559952298524755599
12596602 18 18113890516983301858
13073987 5 18340762625541500214
13540713 4 17843413877454228847
14068700 675 17894916252061157781
14150022 121 18131075896505302801
15183329 4 7925639894747141135
15338160 23 18059295349195808681
15347590 135 18408038511660236066
18608769 82 18271519879833445450
19611394 137 18336267941422061994
20105231 36 18272939319549607486
20721686 146 13901646091033449091
21344244 78 17845394270554102153
21756936 100 13901902306790351103
21796203 349 18194704750621802883
21927370 108 18260836981385931709
22956985 138 17686058697048768015
23559900 14 11458721499443750142
23576562 1 10663518401915193987
23845131 108 17548145433491029377
2747138 104 18410016541736811818
3418910 222 18335427863864542604
350125 39 18201710739608035756
392239 28 18343584075125266171
4015057 19 13912619259342550167
4144715 1 17981047414736039014
4173938 188 16878222078231542088
4173938 306 11458699582019708534
45266715 3 11170177744596854024
469060 322 18341345413257837185
5104073 3 18195518200274267570
57527452 28 17022623100497079099
58083652 198 18341323509610065757
6009941 240 17968370170722818351

> <PUBCHEM_SHAPE_MULTIPOLES>
582.47
19.81
4.07
1.64
19.89
5.23
-0.05
-16.19
11.25
-6.35
0.94
-1.82
-0.08
1.7

> <PUBCHEM_SHAPE_SELFOVERLAP>
1269.283

> <PUBCHEM_SHAPE_VOLUME>
318.3

> <PUBCHEM_COORDINATE_TYPE>
2
5
10

$$$$
