75536913
  -OEChem-12032416333D

 41 43  0     1  0  0  0  0  0999 V2000
    0.3151    3.5342   -1.0404 O   0  0  0  0  0  0  0  0  0  0  0  0
   -1.6996    1.1791    0.9420 O   0  0  0  0  0  0  0  0  0  0  0  0
    1.8633    1.3517    0.0204 N   0  0  1  0  0  0  0  0  0  0  0  0
    2.5020   -1.8582    1.1850 N   0  0  0  0  0  0  0  0  0  0  0  0
    0.6946    1.2654    0.8954 C   0  0  0  0  0  0  0  0  0  0  0  0
   -0.5958    1.5563    0.1181 C   0  0  2  0  0  0  0  0  0  0  0  0
    2.4191    2.7021   -0.1209 C   0  0  0  0  0  0  0  0  0  0  0  0
   -0.7894    3.0072   -0.3154 C   0  0  0  0  0  0  0  0  0  0  0  0
    1.4145    3.8496   -0.1945 C   0  0  0  0  0  0  0  0  0  0  0  0
    2.9126    0.4194    0.4343 C   0  0  0  0  0  0  0  0  0  0  0  0
    2.5438   -1.0090    0.1339 C   0  0  0  0  0  0  0  0  0  0  0  0
   -2.4943    0.1690    0.4743 C   0  0  0  0  0  0  0  0  0  0  0  0
    2.2701   -1.3786   -1.1732 C   0  0  0  0  0  0  0  0  0  0  0  0
   -1.9492   -1.0918    0.2312 C   0  0  0  0  0  0  0  0  0  0  0  0
   -3.8499    0.3996    0.2406 C   0  0  0  0  0  0  0  0  0  0  0  0
    1.9315   -2.7050   -1.4170 C   0  0  0  0  0  0  0  0  0  0  0  0
    2.1693   -3.1391    0.9093 C   0  0  0  0  0  0  0  0  0  0  0  0
    1.8778   -3.6083   -0.3613 C   0  0  0  0  0  0  0  0  0  0  0  0
   -2.7597   -2.1220   -0.2457 C   0  0  0  0  0  0  0  0  0  0  0  0
   -4.6604   -0.6304   -0.2364 C   0  0  0  0  0  0  0  0  0  0  0  0
   -4.1154   -1.8913   -0.4796 C   0  0  0  0  0  0  0  0  0  0  0  0
    0.7868    1.9232    1.7702 H   0  0  0  0  0  0  0  0  0  0  0  0
    0.5917    0.2632    1.3285 H   0  0  0  0  0  0  0  0  0  0  0  0
   -0.5704    0.9528   -0.8021 H   0  0  0  0  0  0  0  0  0  0  0  0
    3.1167    2.9287    0.6964 H   0  0  0  0  0  0  0  0  0  0  0  0
    3.0052    2.7114   -1.0488 H   0  0  0  0  0  0  0  0  0  0  0  0
   -1.6648    3.0612   -0.9738 H   0  0  0  0  0  0  0  0  0  0  0  0
   -1.0348    3.6510    0.5393 H   0  0  0  0  0  0  0  0  0  0  0  0
    3.8435    0.6195   -0.1141 H   0  0  0  0  0  0  0  0  0  0  0  0
    3.1499    0.5405    1.4997 H   0  0  0  0  0  0  0  0  0  0  0  0
    1.0775    4.1508    0.8051 H   0  0  0  0  0  0  0  0  0  0  0  0
    1.9148    4.7228   -0.6282 H   0  0  0  0  0  0  0  0  0  0  0  0
    2.3183   -0.6699   -1.9930 H   0  0  0  0  0  0  0  0  0  0  0  0
   -0.8990   -1.2950    0.4159 H   0  0  0  0  0  0  0  0  0  0  0  0
   -4.2796    1.3799    0.4276 H   0  0  0  0  0  0  0  0  0  0  0  0
    1.7102   -3.0342   -2.4278 H   0  0  0  0  0  0  0  0  0  0  0  0
    2.1410   -3.8034    1.7667 H   0  0  0  0  0  0  0  0  0  0  0  0
    1.6157   -4.6468   -0.5279 H   0  0  0  0  0  0  0  0  0  0  0  0
   -2.3355   -3.1041   -0.4331 H   0  0  0  0  0  0  0  0  0  0  0  0
   -5.7160   -0.4509   -0.4186 H   0  0  0  0  0  0  0  0  0  0  0  0
   -4.7466   -2.6934   -0.8506 H   0  0  0  0  0  0  0  0  0  0  0  0
  1  8  1  0  0  0  0
  1  9  1  0  0  0  0
  2  6  1  0  0  0  0
  2 12  1  0  0  0  0
  3  5  1  0  0  0  0
  3  7  1  0  0  0  0
  3 10  1  0  0  0  0
  4 11  1  0  0  0  0
  4 17  2  0  0  0  0
  5  6  1  0  0  0  0
  5 22  1  0  0  0  0
  5 23  1  0  0  0  0
  6  8  1  0  0  0  0
  6 24  1  0  0  0  0
  7  9  1  0  0  0  0
  7 25  1  0  0  0  0
  7 26  1  0  0  0  0
  8 27  1  0  0  0  0
  8 28  1  0  0  0  0
  9 31  1  0  0  0  0
  9 32  1  0  0  0  0
 10 11  1  0  0  0  0
 10 29  1  0  0  0  0
 10 30  1  0  0  0  0
 11 13  2  0  0  0  0
 12 14  2  0  0  0  0
 12 15  1  0  0  0  0
 13 16  1  0  0  0  0
 13 33  1  0  0  0  0
 14 19  1  0  0  0  0
 14 34  1  0  0  0  0
 15 20  2  0  0  0  0
 15 35  1  0  0  0  0
 16 18  2  0  0  0  0
 16 36  1  0  0  0  0
 17 18  1  0  0  0  0
 17 37  1  0  0  0  0
 18 38  1  0  0  0  0
 19 21  2  0  0  0  0
 19 39  1  0  0  0  0
 20 21  1  0  0  0  0
 20 40  1  0  0  0  0
 21 41  1  0  0  0  0
M  END
> <PUBCHEM_COMPOUND_CID>
75536913

> <PUBCHEM_CONFORMER_RMSD>
0.8

> <PUBCHEM_CONFORMER_DIVERSEORDER>
6
181
119
143
159
83
166
162
52
34
61
76
101
106
171
57
72
141
112
123
35
97
5
139
93
48
125
169
151
28
21
114
26
133
134
142
113
27
41
160
17
138
175
129
172
184
154
156
20
42
4
108
65
148
102
47
180
165
183
68
78
85
173
120
79
89
91
128
188
176
145
187
13
107
95
87
117
157
53
126
29
170
77
96
122
177
163
124
131
16
51
45
2
130
32
189
40
136
12
149
111
11
179
155
174
36
58
86
158
70
84
55
182
81
38
59
33
140
185
1
14
105
24
54
110
146
25
69
3
150
9
135
73
116
164
7
144
103
132
46
98
74
92
121
60
167
109
80
153
62
43
10
22
18
186
71
15
63
50
23
161
178
118
127
39
99
100
19
137
66
75
168
82
49
8
94
31
30
56
44
147
104
115
90
152
88
67
64
37

> <PUBCHEM_MMFF94_PARTIAL_CHARGES>
30
1 -0.56
10 0.41
11 0.17
12 0.08
13 -0.15
14 -0.15
15 -0.15
16 -0.15
17 0.16
18 -0.15
19 -0.15
2 -0.36
20 -0.15
21 -0.15
3 -0.81
33 0.15
34 0.15
35 0.15
36 0.15
37 0.15
38 0.15
39 0.15
4 -0.62
40 0.15
41 0.15
5 0.27
6 0.28
7 0.27
8 0.28
9 0.28

> <PUBCHEM_EFFECTIVE_ROTOR_COUNT>
5.4

> <PUBCHEM_PHARMACOPHORE_FEATURES>
7
1 1 acceptor
1 2 acceptor
1 3 cation
1 4 acceptor
6 12 14 15 19 20 21 rings
6 4 11 13 16 17 18 rings
7 1 3 5 6 7 8 9 rings

> <PUBCHEM_HEAVY_ATOM_COUNT>
21

> <PUBCHEM_ATOM_DEF_STEREO_COUNT>
1

> <PUBCHEM_ATOM_UDEF_STEREO_COUNT>
0

> <PUBCHEM_BOND_DEF_STEREO_COUNT>
0

> <PUBCHEM_BOND_UDEF_STEREO_COUNT>
0

> <PUBCHEM_ISOTOPIC_ATOM_COUNT>
0

> <PUBCHEM_COMPONENT_COUNT>
1

> <PUBCHEM_CACTVS_TAUTO_COUNT>
1

> <PUBCHEM_CONFORMER_ID>
04809A1100000006

> <PUBCHEM_MMFF94_ENERGY>
71.058

> <PUBCHEM_FEATURE_SELFOVERLAP>
35.522

> <PUBCHEM_SHAPE_FINGERPRINT>
10616163 171 17979356687811698707
1100329 8 17834386105665082344
11370993 70 17905322188893846533
116883 192 18267019466697242821
12156800 1 14886977670301026199
12553582 1 18337963272372150939
12788726 201 17829622664310117762
13083527 12 18262216877453684984
138480 1 18410573972366912466
13931106 250 17543907906385441368
14178342 30 18343015563041621016
14251757 17 18043788937014758453
14251757 5 17476665086809553622
17138139 8 16764210616196393935
17492 54 18117859891514805260
17818456 19 17773612520469519977
19930381 70 18409727348878170867
20645477 70 18338232799277117807
21285901 2 17895458320189905469
21421861 104 18269292269195943811
2255824 54 18337956821320657768
23184049 29 18122060905873495626
23559900 14 18341325678078089169
238 59 18120945159111338883
26353 1 17895487924708646821
3060560 45 18120093037958761836
314173 41 18409738352425913331
4280585 95 18339929221217940230
6443956 14 18409450314549322445
81228 2 18194970638607984009
8272917 22 18267308814628140157
9709674 26 18337957908411815299

> <PUBCHEM_SHAPE_MULTIPOLES>
410.47
6.72
5.22
1.03
7.97
1.47
0.07
-3.4
0.14
-4.2
1
-0.49
-0.37
-0.34

> <PUBCHEM_SHAPE_SELFOVERLAP>
867.016

> <PUBCHEM_SHAPE_VOLUME>
227.1

> <PUBCHEM_COORDINATE_TYPE>
2
5
10

$$$$
