11882578
  -OEChem-12032416203D

 61 63  0     1  0  0  0  0  0999 V2000
   -6.9608    2.9135    0.8506 S   0  0  0  0  0  0  0  0  0  0  0  0
    2.6022   -1.7205   -1.5145 O   0  0  0  0  0  0  0  0  0  0  0  0
   -1.3556   -3.7676   -0.7066 O   0  0  0  0  0  0  0  0  0  0  0  0
    0.8565   -5.1111    0.4805 O   0  0  0  0  0  0  0  0  0  0  0  0
    4.0931   -1.4770    1.4083 O   0  0  0  0  0  0  0  0  0  0  0  0
   -1.3984    0.4759   -2.0563 O   0  0  0  0  0  0  0  0  0  0  0  0
    2.8830    2.8659    0.6610 O   0  0  0  0  0  0  0  0  0  0  0  0
   -3.9235   -1.2139    0.5547 O   0  0  0  0  0  0  0  0  0  0  0  0
   -1.4475   -0.9038   -0.1935 N   0  0  0  0  0  0  0  0  0  0  0  0
    3.6086    0.3144    0.0027 N   0  0  0  0  0  0  0  0  0  0  0  0
    4.9857    3.6413    0.2190 N   0  0  0  0  0  0  0  0  0  0  0  0
    2.2764   -1.6730   -0.1303 C   0  0  1  0  0  0  0  0  0  0  0  0
   -0.2379   -1.6367   -0.4972 C   0  0  1  0  0  0  0  0  0  0  0  0
    0.9732   -0.9015    0.0870 C   0  0  0  0  0  0  0  0  0  0  0  0
    2.1730   -3.0987    0.4076 C   0  0  0  0  0  0  0  0  0  0  0  0
   -0.3352   -3.0778    0.0207 C   0  0  2  0  0  0  0  0  0  0  0  0
    0.9733   -3.8478   -0.1745 C   0  0  2  0  0  0  0  0  0  0  0  0
    3.4276   -0.9588    0.5155 C   0  0  0  0  0  0  0  0  0  0  0  0
    4.6321    1.2132    0.4694 C   0  0  1  0  0  0  0  0  0  0  0  0
    5.9205    1.0244   -0.3193 C   0  0  0  0  0  0  0  0  0  0  0  0
   -1.9286    0.1038   -1.0128 C   0  0  0  0  0  0  0  0  0  0  0  0
    6.9207    2.0997    0.0731 C   0  0  0  0  0  0  0  0  0  0  0  0
    4.0695    2.6297    0.4238 C   0  0  0  0  0  0  0  0  0  0  0  0
    6.3425    3.4613   -0.2633 C   0  0  0  0  0  0  0  0  0  0  0  0
   -3.1682    0.7779   -0.5480 C   0  0  0  0  0  0  0  0  0  0  0  0
   -4.1130    0.0924    0.2157 C   0  0  0  0  0  0  0  0  0  0  0  0
   -3.3803    2.1148   -0.8845 C   0  0  0  0  0  0  0  0  0  0  0  0
   -5.2699    0.7440    0.6430 C   0  0  0  0  0  0  0  0  0  0  0  0
   -4.5374    2.7662   -0.4574 C   0  0  0  0  0  0  0  0  0  0  0  0
   -5.4821    2.0809    0.3064 C   0  0  0  0  0  0  0  0  0  0  0  0
   -4.9416   -1.8340    1.3373 C   0  0  0  0  0  0  0  0  0  0  0  0
   -8.2578    1.9030    0.0819 C   0  0  0  0  0  0  0  0  0  0  0  0
   -0.1416   -1.6611   -1.5909 H   0  0  0  0  0  0  0  0  0  0  0  0
    0.8185   -0.7280    1.1611 H   0  0  0  0  0  0  0  0  0  0  0  0
    1.0193    0.0910   -0.3788 H   0  0  0  0  0  0  0  0  0  0  0  0
    2.0903   -3.0950    1.5035 H   0  0  0  0  0  0  0  0  0  0  0  0
    3.0827   -3.6717    0.1823 H   0  0  0  0  0  0  0  0  0  0  0  0
   -0.6336   -3.0980    1.0760 H   0  0  0  0  0  0  0  0  0  0  0  0
    1.1334   -4.0556   -1.2395 H   0  0  0  0  0  0  0  0  0  0  0  0
   -1.9004   -1.0931    0.6954 H   0  0  0  0  0  0  0  0  0  0  0  0
    3.3780   -2.2959   -1.6284 H   0  0  0  0  0  0  0  0  0  0  0  0
    3.0437    0.6154   -0.7859 H   0  0  0  0  0  0  0  0  0  0  0  0
    4.8295    0.9953    1.5273 H   0  0  0  0  0  0  0  0  0  0  0  0
   -1.1207   -3.7457   -1.6499 H   0  0  0  0  0  0  0  0  0  0  0  0
    1.6885   -5.5935    0.3366 H   0  0  0  0  0  0  0  0  0  0  0  0
    6.3427    0.0317   -0.1229 H   0  0  0  0  0  0  0  0  0  0  0  0
    5.7235    1.0756   -1.3981 H   0  0  0  0  0  0  0  0  0  0  0  0
    7.1322    2.0354    1.1474 H   0  0  0  0  0  0  0  0  0  0  0  0
    7.8686    1.9533   -0.4559 H   0  0  0  0  0  0  0  0  0  0  0  0
    6.9567    4.2605    0.1630 H   0  0  0  0  0  0  0  0  0  0  0  0
    6.3114    3.6054   -1.3490 H   0  0  0  0  0  0  0  0  0  0  0  0
    4.6315    4.5926    0.2442 H   0  0  0  0  0  0  0  0  0  0  0  0
   -2.6542    2.6684   -1.4742 H   0  0  0  0  0  0  0  0  0  0  0  0
   -6.0296    0.2594    1.2468 H   0  0  0  0  0  0  0  0  0  0  0  0
   -4.6853    3.8086   -0.7287 H   0  0  0  0  0  0  0  0  0  0  0  0
   -5.0369   -1.3649    2.3225 H   0  0  0  0  0  0  0  0  0  0  0  0
   -5.8948   -1.8797    0.7995 H   0  0  0  0  0  0  0  0  0  0  0  0
   -4.6268   -2.8687    1.5100 H   0  0  0  0  0  0  0  0  0  0  0  0
   -8.0963    1.8333   -0.9973 H   0  0  0  0  0  0  0  0  0  0  0  0
   -8.2747    0.8988    0.5129 H   0  0  0  0  0  0  0  0  0  0  0  0
   -9.2290    2.3721    0.2600 H   0  0  0  0  0  0  0  0  0  0  0  0
  1 30  1  0  0  0  0
  1 32  1  0  0  0  0
  2 12  1  0  0  0  0
  2 41  1  0  0  0  0
  3 16  1  0  0  0  0
  3 44  1  0  0  0  0
  4 17  1  0  0  0  0
  4 45  1  0  0  0  0
  5 18  2  0  0  0  0
  6 21  2  0  0  0  0
  7 23  2  0  0  0  0
  8 26  1  0  0  0  0
  8 31  1  0  0  0  0
  9 13  1  0  0  0  0
  9 21  1  0  0  0  0
  9 40  1  0  0  0  0
 10 18  1  0  0  0  0
 10 19  1  0  0  0  0
 10 42  1  0  0  0  0
 11 23  1  0  0  0  0
 11 24  1  0  0  0  0
 11 52  1  0  0  0  0
 12 14  1  0  0  0  0
 12 15  1  0  0  0  0
 12 18  1  0  0  0  0
 13 14  1  0  0  0  0
 13 16  1  0  0  0  0
 13 33  1  0  0  0  0
 14 34  1  0  0  0  0
 14 35  1  0  0  0  0
 15 17  1  0  0  0  0
 15 36  1  0  0  0  0
 15 37  1  0  0  0  0
 16 17  1  0  0  0  0
 16 38  1  0  0  0  0
 17 39  1  0  0  0  0
 19 20  1  0  0  0  0
 19 23  1  0  0  0  0
 19 43  1  0  0  0  0
 20 22  1  0  0  0  0
 20 46  1  0  0  0  0
 20 47  1  0  0  0  0
 21 25  1  0  0  0  0
 22 24  1  0  0  0  0
 22 48  1  0  0  0  0
 22 49  1  0  0  0  0
 24 50  1  0  0  0  0
 24 51  1  0  0  0  0
 25 26  2  0  0  0  0
 25 27  1  0  0  0  0
 26 28  1  0  0  0  0
 27 29  2  0  0  0  0
 27 53  1  0  0  0  0
 28 30  2  0  0  0  0
 28 54  1  0  0  0  0
 29 30  1  0  0  0  0
 29 55  1  0  0  0  0
 31 56  1  0  0  0  0
 31 57  1  0  0  0  0
 31 58  1  0  0  0  0
 32 59  1  0  0  0  0
 32 60  1  0  0  0  0
 32 61  1  0  0  0  0
M  END
> <PUBCHEM_COMPOUND_CID>
11882578

> <PUBCHEM_CONFORMER_RMSD>
1

> <PUBCHEM_CONFORMER_DIVERSEORDER>
3
123
84
120
22
85
65
50
90
81
75
79
26
10
52
55
39
25
111
106
73
109
124
51
17
43
83
38
101
95
115
91
62
5
74
6
70
45
118
102
66
104
53
72
42
97
64
16
33
100
67
36
92
19
46
57
15
86
8
89
117
96
112
105
122
47
107
20
103
7
78
35
54
99
61
1
121
119
60
49
31
110
108
113
29
77
2
68
24
27
48
28
18
21
69
4
9
58
34
98
80
59
114
23
87
88
82
40
11
125
14
71
93
56
37
116
30
41
94
44
32
13
63
76
12

> <PUBCHEM_MMFF94_PARTIAL_CHARGES>
37
1 -0.33
10 -0.73
11 -0.73
12 0.34
13 0.3
16 0.28
17 0.28
18 0.57
19 0.36
2 -0.68
21 0.54
23 0.57
24 0.3
25 0.09
26 0.08
27 -0.15
28 -0.15
29 -0.15
3 -0.68
30 0.1
31 0.28
32 0.23
4 -0.68
40 0.37
41 0.4
42 0.37
44 0.4
45 0.4
5 -0.57
52 0.37
53 0.15
54 0.15
55 0.15
6 -0.57
7 -0.57
8 -0.36
9 -0.73

> <PUBCHEM_EFFECTIVE_ROTOR_COUNT>
10.2

> <PUBCHEM_PHARMACOPHORE_FEATURES>
17
1 10 donor
1 11 donor
1 2 acceptor
1 2 donor
1 3 acceptor
1 3 donor
1 32 hydrophobe
1 4 acceptor
1 4 donor
1 5 acceptor
1 6 acceptor
1 7 acceptor
1 8 acceptor
1 9 donor
6 11 19 20 22 23 24 rings
6 12 13 14 15 16 17 rings
6 25 26 27 28 29 30 rings

> <PUBCHEM_HEAVY_ATOM_COUNT>
32

> <PUBCHEM_ATOM_DEF_STEREO_COUNT>
5

> <PUBCHEM_ATOM_UDEF_STEREO_COUNT>
0

> <PUBCHEM_BOND_DEF_STEREO_COUNT>
0

> <PUBCHEM_BOND_UDEF_STEREO_COUNT>
0

> <PUBCHEM_ISOTOPIC_ATOM_COUNT>
0

> <PUBCHEM_COMPONENT_COUNT>
1

> <PUBCHEM_CACTVS_TAUTO_COUNT>
8

> <PUBCHEM_CONFORMER_ID>
00B5505200000003

> <PUBCHEM_MMFF94_ENERGY>
89.2018

> <PUBCHEM_FEATURE_SELFOVERLAP>
86.292

> <PUBCHEM_SHAPE_FINGERPRINT>
10411042 1 17619067227306149110
1200032 147 18261114076123819816
12107183 9 18263064614494627346
12677640 9 18124596633586375701
12925494 130 18411415142250482801
13248334 5 18194966240863322002
14251764 75 18410574007017132528
1454969 45 18339075025406144631
14565420 104 18336546027743454907
14790565 3 18410855486182951596
14849402 71 18266177215289769906
14955137 171 18120086179239433786
151778 21 18337943524476390880
15183329 4 14405190551548986764
15890870 6 18411419522837575456
16126227 98 18266180715714457304
16760501 71 18410575046678916473
20691028 202 18341047514416305384
21033648 144 18260257530758834485
21033648 29 18340759446891428104
21133410 127 18114180783558686500
21133410 52 17404871835324570295
21365058 113 17410507484792613622
21756936 100 18270392910352749694
22122407 14 18128828434883048929
23522609 53 17631178485994514273
23559900 14 18049722919444485859
23845131 108 18335140899307600219
2838139 119 18270113651858790420
3178227 256 18263359188752650242
3411729 13 18411983524888698637
34797466 226 18059579015069304023
4058900 60 18412271614093803632
4073 2 18335988601919751675
4169191 19 18340769252792608673
444735 79 18116724108724905147
50009960 94 16593962180423867067
5104073 3 18186519891026680219
5109719 28 18340496595103506761
5252454 2 18263630909710691412
6697151 62 17250871569652711287
7808743 9 18338793537285653442
9849439 229 18408326596501495702

> <PUBCHEM_SHAPE_MULTIPOLES>
606.37
18.32
5.73
1.07
9.94
3.46
-0.18
-24.19
3.56
-4.4
0.46
0.43
0.12
0.21

> <PUBCHEM_SHAPE_SELFOVERLAP>
1262.468

> <PUBCHEM_SHAPE_VOLUME>
346.6

> <PUBCHEM_COORDINATE_TYPE>
2
5
10

$$$$
