75536620
  -OEChem-12032416313D

 46 48  0     1  0  0  0  0  0999 V2000
    0.4150    0.9224   -0.0390 O   0  0  0  0  0  0  0  0  0  0  0  0
   -0.8197   -2.4453   -0.2372 O   0  0  0  0  0  0  0  0  0  0  0  0
    3.7921   -2.0089    0.0535 O   0  0  0  0  0  0  0  0  0  0  0  0
   -3.0370   -0.2217   -0.1155 N   0  0  0  0  0  0  0  0  0  0  0  0
    2.9169   -0.1304   -0.9896 N   0  0  0  0  0  0  0  0  0  0  0  0
   -1.6442   -0.2114    0.3012 C   0  0  1  0  0  0  0  0  0  0  0  0
   -0.7430   -1.0716   -0.5651 C   0  0  1  0  0  0  0  0  0  0  0  0
    0.6240   -0.4855   -0.2387 C   0  0  1  0  0  0  0  0  0  0  0  0
   -0.9919    1.1532    0.1517 C   0  0  0  0  0  0  0  0  0  0  0  0
    1.6481   -0.7015   -1.3386 C   0  0  0  0  0  0  0  0  0  0  0  0
   -3.8999    0.3301    0.9222 C   0  0  0  0  0  0  0  0  0  0  0  0
   -5.3453    0.3428    0.5013 C   0  0  0  0  0  0  0  0  0  0  0  0
    3.9022   -0.8413   -0.3111 C   0  0  0  0  0  0  0  0  0  0  0  0
   -5.8697    1.4533   -0.1600 C   0  0  0  0  0  0  0  0  0  0  0  0
   -6.1601   -0.7562    0.7730 C   0  0  0  0  0  0  0  0  0  0  0  0
    5.1510   -0.0988   -0.0007 C   0  0  0  0  0  0  0  0  0  0  0  0
   -7.2091    1.4649   -0.5497 C   0  0  0  0  0  0  0  0  0  0  0  0
   -7.4994   -0.7448    0.3833 C   0  0  0  0  0  0  0  0  0  0  0  0
   -8.0239    0.3659   -0.2780 C   0  0  0  0  0  0  0  0  0  0  0  0
    5.9281   -0.4684    1.0970 C   0  0  0  0  0  0  0  0  0  0  0  0
    5.5469    0.9672   -0.8083 C   0  0  0  0  0  0  0  0  0  0  0  0
    7.1014    0.2281    1.3873 C   0  0  0  0  0  0  0  0  0  0  0  0
    6.7201    1.6637   -0.5183 C   0  0  0  0  0  0  0  0  0  0  0  0
    7.4974    1.2942    0.5795 C   0  0  0  0  0  0  0  0  0  0  0  0
   -1.5560   -0.5645    1.3385 H   0  0  0  0  0  0  0  0  0  0  0  0
   -0.9826   -0.9480   -1.6286 H   0  0  0  0  0  0  0  0  0  0  0  0
    1.0070   -0.8958    0.7051 H   0  0  0  0  0  0  0  0  0  0  0  0
   -1.1386    1.7903    1.0291 H   0  0  0  0  0  0  0  0  0  0  0  0
   -1.3529    1.6931   -0.7314 H   0  0  0  0  0  0  0  0  0  0  0  0
    1.3317   -0.2043   -2.2621 H   0  0  0  0  0  0  0  0  0  0  0  0
    1.7743   -1.7697   -1.5448 H   0  0  0  0  0  0  0  0  0  0  0  0
   -3.3206   -1.1835   -0.3046 H   0  0  0  0  0  0  0  0  0  0  0  0
   -3.6013    1.3566    1.1704 H   0  0  0  0  0  0  0  0  0  0  0  0
   -3.8064   -0.2481    1.8511 H   0  0  0  0  0  0  0  0  0  0  0  0
   -0.6075   -2.5469    0.7061 H   0  0  0  0  0  0  0  0  0  0  0  0
    3.0452    0.8537   -1.1993 H   0  0  0  0  0  0  0  0  0  0  0  0
   -5.2447    2.3150   -0.3791 H   0  0  0  0  0  0  0  0  0  0  0  0
   -5.7630   -1.6281    1.2861 H   0  0  0  0  0  0  0  0  0  0  0  0
   -7.6174    2.3294   -1.0651 H   0  0  0  0  0  0  0  0  0  0  0  0
   -8.1338   -1.6006    0.5944 H   0  0  0  0  0  0  0  0  0  0  0  0
   -9.0667    0.3747   -0.5816 H   0  0  0  0  0  0  0  0  0  0  0  0
    5.6344   -1.2934    1.7406 H   0  0  0  0  0  0  0  0  0  0  0  0
    4.9882    1.2675   -1.6897 H   0  0  0  0  0  0  0  0  0  0  0  0
    7.7063   -0.0591    2.2423 H   0  0  0  0  0  0  0  0  0  0  0  0
    7.0328    2.4893   -1.1510 H   0  0  0  0  0  0  0  0  0  0  0  0
    8.4116    1.8356    0.8045 H   0  0  0  0  0  0  0  0  0  0  0  0
  1  8  1  0  0  0  0
  1  9  1  0  0  0  0
  2  7  1  0  0  0  0
  2 35  1  0  0  0  0
  3 13  2  0  0  0  0
  4  6  1  0  0  0  0
  4 11  1  0  0  0  0
  4 32  1  0  0  0  0
  5 10  1  0  0  0  0
  5 13  1  0  0  0  0
  5 36  1  0  0  0  0
  6  7  1  0  0  0  0
  6  9  1  0  0  0  0
  6 25  1  0  0  0  0
  7  8  1  0  0  0  0
  7 26  1  0  0  0  0
  8 10  1  0  0  0  0
  8 27  1  0  0  0  0
  9 28  1  0  0  0  0
  9 29  1  0  0  0  0
 10 30  1  0  0  0  0
 10 31  1  0  0  0  0
 11 12  1  0  0  0  0
 11 33  1  0  0  0  0
 11 34  1  0  0  0  0
 12 14  2  0  0  0  0
 12 15  1  0  0  0  0
 13 16  1  0  0  0  0
 14 17  1  0  0  0  0
 14 37  1  0  0  0  0
 15 18  2  0  0  0  0
 15 38  1  0  0  0  0
 16 20  2  0  0  0  0
 16 21  1  0  0  0  0
 17 19  2  0  0  0  0
 17 39  1  0  0  0  0
 18 19  1  0  0  0  0
 18 40  1  0  0  0  0
 19 41  1  0  0  0  0
 20 22  1  0  0  0  0
 20 42  1  0  0  0  0
 21 23  2  0  0  0  0
 21 43  1  0  0  0  0
 22 24  2  0  0  0  0
 22 44  1  0  0  0  0
 23 24  1  0  0  0  0
 23 45  1  0  0  0  0
 24 46  1  0  0  0  0
M  END
> <PUBCHEM_COMPOUND_CID>
75536620

> <PUBCHEM_CONFORMER_RMSD>
0.8

> <PUBCHEM_CONFORMER_DIVERSEORDER>
1
259
58
260
251
219
104
140
70
41
136
270
246
75
163
286
203
278
12
50
155
53
281
79
141
7
239
182
137
129
208
235
255
187
177
17
218
51
277
77
222
74
217
189
279
172
247
13
245
148
32
176
81
55
238
49
25
193
233
117
268
133
76
185
252
52
159
266
126
109
282
23
196
106
191
96
69
273
276
263
85
288
160
127
210
221
65
125
181
86
227
169
287
192
131
26
10
254
214
99
207
174
48
175
230
97
190
199
92
267
31
212
170
18
211
5
188
27
36
178
274
262
134
59
256
153
265
272
271
132
66
67
95
103
100
57
72
154
241
164
248
206
16
121
215
253
139
102
156
87
165
240
168
142
9
284
91
195
147
250
114
38
242
224
22
232
130
269
43
144
167
283
84
60
111
171
243
226
47
184
223
150
204
88
258
205
24
54
105
98
78
237
197
264
82
275
231
68
39
112
90
202
124
180
73
228
166
110
34
108
21
209
61
14
151
249
244
186
30
201
42
285
198
19
280
261
213
62
183
35
162
46
56
4
71
234
179
3
138
158
145
63
80
122
101
119
229
149
200
152
173
257
157
64
33
37
194
116
216
220
89
11
6
28
94
146
118
29
15
225
2
143
20
107
45
236
120
135
40
8
113
123
161
83
128
115
93
44

> <PUBCHEM_MMFF94_PARTIAL_CHARGES>
37
1 -0.56
10 0.3
11 0.41
12 -0.14
13 0.54
14 -0.15
15 -0.15
16 0.09
17 -0.15
18 -0.15
19 -0.15
2 -0.68
20 -0.15
21 -0.15
22 -0.15
23 -0.15
24 -0.15
3 -0.57
32 0.36
35 0.4
36 0.37
37 0.15
38 0.15
39 0.15
4 -0.9
40 0.15
41 0.15
42 0.15
43 0.15
44 0.15
45 0.15
46 0.15
5 -0.73
6 0.27
7 0.28
8 0.28
9 0.28

> <PUBCHEM_EFFECTIVE_ROTOR_COUNT>
8

> <PUBCHEM_PHARMACOPHORE_FEATURES>
10
1 1 acceptor
1 2 acceptor
1 2 donor
1 3 acceptor
1 4 cation
1 4 donor
1 5 donor
5 1 6 7 8 9 rings
6 12 14 15 17 18 19 rings
6 16 20 21 22 23 24 rings

> <PUBCHEM_HEAVY_ATOM_COUNT>
24

> <PUBCHEM_ATOM_DEF_STEREO_COUNT>
3

> <PUBCHEM_ATOM_UDEF_STEREO_COUNT>
0

> <PUBCHEM_BOND_DEF_STEREO_COUNT>
0

> <PUBCHEM_BOND_UDEF_STEREO_COUNT>
0

> <PUBCHEM_ISOTOPIC_ATOM_COUNT>
0

> <PUBCHEM_COMPONENT_COUNT>
1

> <PUBCHEM_CACTVS_TAUTO_COUNT>
2

> <PUBCHEM_CONFORMER_ID>
048098EC00000001

> <PUBCHEM_MMFF94_ENERGY>
57.3668

> <PUBCHEM_FEATURE_SELFOVERLAP>
50.747

> <PUBCHEM_SHAPE_FINGERPRINT>
10 15 18334858328860371578
10162869 55 18339354271062103407
106641 1 18412826919179582619
11315181 36 17988926661796373921
11638347 137 17822290163515177050
11719270 70 18410857646404256806
125118 31 18335423439304266364
13533116 47 17489312923930180878
13914758 101 16298384635071535973
14123256 10 17275105028649430369
14216079 64 12252177463967868264
14251764 18 18114180856308222605
14347424 109 16008753537225241588
14856354 85 11815891267889928521
15131766 46 17243877949919045332
15183329 4 12757147974264415193
15849732 13 18410013243069754781
16090146 7 14189301524743947838
17093844 174 17748828515067521985
20157964 124 18271811190142703038
20554085 129 18131059438195996362
21095086 128 13398631645343423573
21130935 74 18338240354199165907
21150785 3 14046024104662567688
21365058 27 15195286430720523037
21792934 111 18338789023343629720
220451 1 14045741491814890693
221357 26 12823300092114781010
22224240 67 18060136548230603975
23035841 295 8430313528873157069
23081809 10 16486981626963910011
246663 6 7853574621064743976
24771293 8 18130795546530578161
249057 25 16732996301390756493
28498 318 12612746917328332234
328311 84 8430312446362076361
34797466 226 14908181958422363128
4340502 62 17458344130919534666
5207 217 17274822454588340439
5758199 1 17346886641564734283
59682541 35 18408884070503464136
636775 72 18340206273033113137
6438161 24 9943532886874922708

> <PUBCHEM_SHAPE_MULTIPOLES>
466.34
26.19
1.62
1.03
8.61
0.24
0.06
-8.68
4.42
-0.39
-0.19
-0.95
0.02
0.32

> <PUBCHEM_SHAPE_SELFOVERLAP>
988.151

> <PUBCHEM_SHAPE_VOLUME>
260.4

> <PUBCHEM_COORDINATE_TYPE>
2
5
10

$$$$
