25389034
  -OEChem-12032416163D

 51 54  0     1  0  0  0  0  0999 V2000
    6.6508    1.6533    0.3315 F   0  0  0  0  0  0  0  0  0  0  0  0
   -0.8009    3.3965   -0.0860 O   0  0  0  0  0  0  0  0  0  0  0  0
   -3.6528   -0.5520    1.3323 N   0  0  2  0  0  0  0  0  0  0  0  0
    0.4886   -2.6507   -0.5432 N   0  0  0  0  0  0  0  0  0  0  0  0
   -3.0809    2.9468    0.0826 N   0  0  0  0  0  0  0  0  0  0  0  0
    1.7910   -2.3270   -0.6165 N   0  0  0  0  0  0  0  0  0  0  0  0
   -2.7239   -1.3651   -0.9610 C   0  0  2  0  0  0  0  0  0  0  0  0
   -1.7942   -1.8245    0.1961 C   0  0  2  0  0  0  0  0  0  0  0  0
   -3.6049    0.5822    0.3724 C   0  0  2  0  0  0  0  0  0  0  0  0
   -2.8679    0.1709   -0.9204 C   0  0  0  0  0  0  0  0  0  0  0  0
   -4.1195   -1.9592   -0.6733 C   0  0  0  0  0  0  0  0  0  0  0  0
   -2.2985   -1.1365    1.4968 C   0  0  0  0  0  0  0  0  0  0  0  0
   -4.5400   -1.5935    0.7610 C   0  0  0  0  0  0  0  0  0  0  0  0
   -0.2906   -1.6780    0.0111 C   0  0  0  0  0  0  0  0  0  0  0  0
   -3.0056    1.8460    0.9929 C   0  0  0  0  0  0  0  0  0  0  0  0
    0.5613   -0.6466    0.3225 C   0  0  0  0  0  0  0  0  0  0  0  0
    1.8291   -1.1017   -0.0862 C   0  0  0  0  0  0  0  0  0  0  0  0
    0.0529   -3.9382   -1.0325 C   0  0  0  0  0  0  0  0  0  0  0  0
   -1.9669    3.6380   -0.3869 C   0  0  0  0  0  0  0  0  0  0  0  0
    3.0757   -0.3894    0.0217 C   0  0  0  0  0  0  0  0  0  0  0  0
   -2.3272    4.7354   -1.3522 C   0  0  0  0  0  0  0  0  0  0  0  0
    3.0898    1.0042   -0.0351 C   0  0  0  0  0  0  0  0  0  0  0  0
    4.2692   -1.0930    0.1835 C   0  0  0  0  0  0  0  0  0  0  0  0
    4.2974    1.6943    0.0695 C   0  0  0  0  0  0  0  0  0  0  0  0
    5.4769   -0.4030    0.2881 C   0  0  0  0  0  0  0  0  0  0  0  0
    5.4910    0.9906    0.2311 C   0  0  0  0  0  0  0  0  0  0  0  0
   -2.3492   -1.6952   -1.9353 H   0  0  0  0  0  0  0  0  0  0  0  0
   -1.9767   -2.9005    0.3376 H   0  0  0  0  0  0  0  0  0  0  0  0
   -4.6412    0.8368    0.1037 H   0  0  0  0  0  0  0  0  0  0  0  0
   -1.8752    0.6295   -0.9913 H   0  0  0  0  0  0  0  0  0  0  0  0
   -3.4414    0.5105   -1.7918 H   0  0  0  0  0  0  0  0  0  0  0  0
   -4.1027   -3.0491   -0.7900 H   0  0  0  0  0  0  0  0  0  0  0  0
   -4.8475   -1.5665   -1.3936 H   0  0  0  0  0  0  0  0  0  0  0  0
   -2.3361   -1.8866    2.2989 H   0  0  0  0  0  0  0  0  0  0  0  0
   -1.6119   -0.3749    1.8771 H   0  0  0  0  0  0  0  0  0  0  0  0
   -5.5798   -1.2442    0.7666 H   0  0  0  0  0  0  0  0  0  0  0  0
   -4.5267   -2.4854    1.4005 H   0  0  0  0  0  0  0  0  0  0  0  0
   -1.9665    1.6980    1.3019 H   0  0  0  0  0  0  0  0  0  0  0  0
   -3.5758    2.1327    1.8839 H   0  0  0  0  0  0  0  0  0  0  0  0
    0.2978    0.2980    0.7768 H   0  0  0  0  0  0  0  0  0  0  0  0
   -4.0040    3.2547   -0.2096 H   0  0  0  0  0  0  0  0  0  0  0  0
   -0.7961   -3.7927   -1.7045 H   0  0  0  0  0  0  0  0  0  0  0  0
    0.8708   -4.4148   -1.5796 H   0  0  0  0  0  0  0  0  0  0  0  0
   -0.2283   -4.5539   -0.1749 H   0  0  0  0  0  0  0  0  0  0  0  0
   -3.1456    5.3400   -0.9513 H   0  0  0  0  0  0  0  0  0  0  0  0
   -1.4608    5.3826   -1.5144 H   0  0  0  0  0  0  0  0  0  0  0  0
   -2.6323    4.2950   -2.3052 H   0  0  0  0  0  0  0  0  0  0  0  0
    2.1779    1.5804   -0.1706 H   0  0  0  0  0  0  0  0  0  0  0  0
    4.2897   -2.1787    0.2400 H   0  0  0  0  0  0  0  0  0  0  0  0
    4.3094    2.7792    0.0230 H   0  0  0  0  0  0  0  0  0  0  0  0
    6.4063   -0.9500    0.4158 H   0  0  0  0  0  0  0  0  0  0  0  0
  1 26  1  0  0  0  0
  2 19  2  0  0  0  0
  3  9  1  0  0  0  0
  3 12  1  0  0  0  0
  3 13  1  0  0  0  0
  4  6  1  0  0  0  0
  4 14  1  0  0  0  0
  4 18  1  0  0  0  0
  5 15  1  0  0  0  0
  5 19  1  0  0  0  0
  5 41  1  0  0  0  0
  6 17  2  0  0  0  0
  7  8  1  0  0  0  0
  7 10  1  0  0  0  0
  7 11  1  0  0  0  0
  7 27  1  0  0  0  0
  8 12  1  0  0  0  0
  8 14  1  0  0  0  0
  8 28  1  0  0  0  0
  9 10  1  0  0  0  0
  9 15  1  0  0  0  0
  9 29  1  0  0  0  0
 10 30  1  0  0  0  0
 10 31  1  0  0  0  0
 11 13  1  0  0  0  0
 11 32  1  0  0  0  0
 11 33  1  0  0  0  0
 12 34  1  0  0  0  0
 12 35  1  0  0  0  0
 13 36  1  0  0  0  0
 13 37  1  0  0  0  0
 14 16  2  0  0  0  0
 15 38  1  0  0  0  0
 15 39  1  0  0  0  0
 16 17  1  0  0  0  0
 16 40  1  0  0  0  0
 17 20  1  0  0  0  0
 18 42  1  0  0  0  0
 18 43  1  0  0  0  0
 18 44  1  0  0  0  0
 19 21  1  0  0  0  0
 20 22  2  0  0  0  0
 20 23  1  0  0  0  0
 21 45  1  0  0  0  0
 21 46  1  0  0  0  0
 21 47  1  0  0  0  0
 22 24  1  0  0  0  0
 22 48  1  0  0  0  0
 23 25  2  0  0  0  0
 23 49  1  0  0  0  0
 24 26  2  0  0  0  0
 24 50  1  0  0  0  0
 25 26  1  0  0  0  0
 25 51  1  0  0  0  0
M  END
> <PUBCHEM_COMPOUND_CID>
25389034

> <PUBCHEM_CONFORMER_RMSD>
0.8

> <PUBCHEM_CONFORMER_DIVERSEORDER>
3
20
19
12
22
14
7
24
5
25
21
15
11
16
18
1
9
10
13
8
23
4
6
2
17

> <PUBCHEM_MMFF94_PARTIAL_CHARGES>
29
1 -0.19
12 0.27
13 0.27
14 -0.33
15 0.3
16 -0.15
17 0.23
18 0.26
19 0.57
2 -0.57
20 0.05
21 0.06
22 -0.15
23 -0.15
24 -0.15
25 -0.15
26 0.19
3 -0.81
4 0.31
40 0.15
41 0.37
48 0.15
49 0.15
5 -0.73
50 0.15
51 0.15
6 -0.71
8 0.18
9 0.27

> <PUBCHEM_EFFECTIVE_ROTOR_COUNT>
6.2

> <PUBCHEM_PHARMACOPHORE_FEATURES>
7
1 2 acceptor
1 3 cation
1 5 donor
1 6 acceptor
5 4 6 14 16 17 rings
6 20 22 23 24 25 26 rings
8 3 7 8 9 10 11 12 13 rings

> <PUBCHEM_HEAVY_ATOM_COUNT>
26

> <PUBCHEM_ATOM_DEF_STEREO_COUNT>
3

> <PUBCHEM_ATOM_UDEF_STEREO_COUNT>
0

> <PUBCHEM_BOND_DEF_STEREO_COUNT>
0

> <PUBCHEM_BOND_UDEF_STEREO_COUNT>
0

> <PUBCHEM_ISOTOPIC_ATOM_COUNT>
0

> <PUBCHEM_COMPONENT_COUNT>
1

> <PUBCHEM_CACTVS_TAUTO_COUNT>
2

> <PUBCHEM_CONFORMER_ID>
018367EA00000003

> <PUBCHEM_MMFF94_ENERGY>
58.7136

> <PUBCHEM_FEATURE_SELFOVERLAP>
35.522

> <PUBCHEM_SHAPE_FINGERPRINT>
10087517 78 18339355379317146184
10670039 82 18336562576954151284
10871710 139 18341609335029808293
11045515 52 18265323075364647519
11315181 36 13840258225823129766
11595378 159 18188192269945839896
12107183 9 17756695348448882730
12596602 18 17313380171364094672
13402501 40 18412545413843059089
13911987 19 18265037188987454727
13944108 23 15667325077132679692
14251764 38 18264763264599770162
14251764 75 17767127501625361145
14466204 15 18338790101580829378
15961568 22 18410017675465727484
17844677 252 18410860932555248598
19246450 95 17976231579977598722
19611394 137 17899709143511863675
21236236 1 18412544306173857224
21304303 64 18410570683519255525
22113638 7 18050568735700870245
22956985 138 16743416656608109779
23227448 37 18267304236045692845
23559900 14 17911239421394166818
238 59 16892839741514917757
25019877 29 17416981705857394647
3117164 225 17828191100566490234
469060 322 18265915677524250569
474144 1 17606423165423975476
508706 21 18337390418419401916
6036956 94 18260552276615797613
6608658 132 18193565681965273868
7399639 24 18339657650420281859
9981440 41 18408885118286054659

> <PUBCHEM_SHAPE_MULTIPOLES>
502
11.32
4.89
1.07
16.43
4.74
0.05
3.14
1.88
-4.25
-2.05
-1.03
-0.05
0.78

> <PUBCHEM_SHAPE_SELFOVERLAP>
1081.099

> <PUBCHEM_SHAPE_VOLUME>
278.6

> <PUBCHEM_COORDINATE_TYPE>
2
5
10

$$$$
