75536514
  -OEChem-12032416323D

 52 53  0     1  0  0  0  0  0999 V2000
    0.6535    0.0360   -0.3439 O   0  0  0  0  0  0  0  0  0  0  0  0
   -1.0827   -2.6724    1.2547 O   0  0  0  0  0  0  0  0  0  0  0  0
   -6.4670    1.2051    0.3321 O   0  0  0  0  0  0  0  0  0  0  0  0
    3.2398   -0.3604   -1.8870 O   0  0  0  0  0  0  0  0  0  0  0  0
   -2.8811   -0.8046   -0.5212 N   0  0  0  0  0  0  0  0  0  0  0  0
    3.0749   -1.4483    0.1599 N   0  0  0  0  0  0  0  0  0  0  0  0
   -1.5953   -0.5740    0.1170 C   0  0  1  0  0  0  0  0  0  0  0  0
   -0.7215   -1.8124    0.1915 C   0  0  1  0  0  0  0  0  0  0  0  0
    0.6516   -1.1900    0.4063 C   0  0  1  0  0  0  0  0  0  0  0  0
   -3.7998    0.3026   -0.2681 C   0  0  0  0  0  0  0  0  0  0  0  0
   -0.7059    0.3748   -0.6697 C   0  0  0  0  0  0  0  0  0  0  0  0
   -4.4013    0.2096    1.1376 C   0  0  0  0  0  0  0  0  0  0  0  0
   -4.9165    0.3181   -1.3160 C   0  0  0  0  0  0  0  0  0  0  0  0
    1.7924   -2.0777   -0.0581 C   0  0  0  0  0  0  0  0  0  0  0  0
   -5.4555    1.2932    1.3357 C   0  0  0  0  0  0  0  0  0  0  0  0
   -5.9421    1.3957   -0.9818 C   0  0  0  0  0  0  0  0  0  0  0  0
    4.9780    1.2736    0.3874 C   0  0  0  0  0  0  0  0  0  0  0  0
    5.0370   -0.1057   -0.3112 C   0  0  0  0  0  0  0  0  0  0  0  0
    3.6924   -0.6390   -0.7784 C   0  0  0  0  0  0  0  0  0  0  0  0
    4.4098    2.2940   -0.6184 C   0  0  0  0  0  0  0  0  0  0  0  0
    6.3807    1.7396    0.8123 C   0  0  0  0  0  0  0  0  0  0  0  0
    4.0587    1.2422    1.6192 C   0  0  0  0  0  0  0  0  0  0  0  0
   -1.7188   -0.2011    1.1412 H   0  0  0  0  0  0  0  0  0  0  0  0
   -0.7573   -2.3776   -0.7482 H   0  0  0  0  0  0  0  0  0  0  0  0
    0.8024   -0.9273    1.4617 H   0  0  0  0  0  0  0  0  0  0  0  0
   -3.2718    1.2611   -0.3615 H   0  0  0  0  0  0  0  0  0  0  0  0
   -0.8184    0.2496   -1.7529 H   0  0  0  0  0  0  0  0  0  0  0  0
   -0.8832    1.4261   -0.4240 H   0  0  0  0  0  0  0  0  0  0  0  0
   -3.2890   -1.6755   -0.1826 H   0  0  0  0  0  0  0  0  0  0  0  0
   -3.6417    0.3093    1.9191 H   0  0  0  0  0  0  0  0  0  0  0  0
   -4.8796   -0.7705    1.2666 H   0  0  0  0  0  0  0  0  0  0  0  0
   -5.4206   -0.6573   -1.3266 H   0  0  0  0  0  0  0  0  0  0  0  0
   -4.5068    0.4890   -2.3182 H   0  0  0  0  0  0  0  0  0  0  0  0
    1.7961   -3.0250    0.4905 H   0  0  0  0  0  0  0  0  0  0  0  0
    1.6987   -2.2954   -1.1281 H   0  0  0  0  0  0  0  0  0  0  0  0
   -5.9407    1.1668    2.3088 H   0  0  0  0  0  0  0  0  0  0  0  0
   -5.0081    2.2940    1.3164 H   0  0  0  0  0  0  0  0  0  0  0  0
   -5.5071    2.3991   -1.0590 H   0  0  0  0  0  0  0  0  0  0  0  0
   -6.7789    1.3434   -1.6855 H   0  0  0  0  0  0  0  0  0  0  0  0
   -1.0509   -2.1646    2.0832 H   0  0  0  0  0  0  0  0  0  0  0  0
    3.5293   -1.6092    1.0539 H   0  0  0  0  0  0  0  0  0  0  0  0
    5.4961   -0.8408    0.3626 H   0  0  0  0  0  0  0  0  0  0  0  0
    5.6916   -0.0591   -1.1914 H   0  0  0  0  0  0  0  0  0  0  0  0
    3.3669    2.0829   -0.8775 H   0  0  0  0  0  0  0  0  0  0  0  0
    4.9945    2.3076   -1.5451 H   0  0  0  0  0  0  0  0  0  0  0  0
    4.4335    3.3075   -0.2005 H   0  0  0  0  0  0  0  0  0  0  0  0
    6.8218    1.0416    1.5325 H   0  0  0  0  0  0  0  0  0  0  0  0
    7.0542    1.7989   -0.0499 H   0  0  0  0  0  0  0  0  0  0  0  0
    6.3496    2.7293    1.2813 H   0  0  0  0  0  0  0  0  0  0  0  0
    3.0157    1.0454    1.3516 H   0  0  0  0  0  0  0  0  0  0  0  0
    4.0764    2.2036    2.1458 H   0  0  0  0  0  0  0  0  0  0  0  0
    4.3799    0.4716    2.3286 H   0  0  0  0  0  0  0  0  0  0  0  0
  1  9  1  0  0  0  0
  1 11  1  0  0  0  0
  2  8  1  0  0  0  0
  2 40  1  0  0  0  0
  3 15  1  0  0  0  0
  3 16  1  0  0  0  0
  4 19  2  0  0  0  0
  5  7  1  0  0  0  0
  5 10  1  0  0  0  0
  5 29  1  0  0  0  0
  6 14  1  0  0  0  0
  6 19  1  0  0  0  0
  6 41  1  0  0  0  0
  7  8  1  0  0  0  0
  7 11  1  0  0  0  0
  7 23  1  0  0  0  0
  8  9  1  0  0  0  0
  8 24  1  0  0  0  0
  9 14  1  0  0  0  0
  9 25  1  0  0  0  0
 10 12  1  0  0  0  0
 10 13  1  0  0  0  0
 10 26  1  0  0  0  0
 11 27  1  0  0  0  0
 11 28  1  0  0  0  0
 12 15  1  0  0  0  0
 12 30  1  0  0  0  0
 12 31  1  0  0  0  0
 13 16  1  0  0  0  0
 13 32  1  0  0  0  0
 13 33  1  0  0  0  0
 14 34  1  0  0  0  0
 14 35  1  0  0  0  0
 15 36  1  0  0  0  0
 15 37  1  0  0  0  0
 16 38  1  0  0  0  0
 16 39  1  0  0  0  0
 17 18  1  0  0  0  0
 17 20  1  0  0  0  0
 17 21  1  0  0  0  0
 17 22  1  0  0  0  0
 18 19  1  0  0  0  0
 18 42  1  0  0  0  0
 18 43  1  0  0  0  0
 20 44  1  0  0  0  0
 20 45  1  0  0  0  0
 20 46  1  0  0  0  0
 21 47  1  0  0  0  0
 21 48  1  0  0  0  0
 21 49  1  0  0  0  0
 22 50  1  0  0  0  0
 22 51  1  0  0  0  0
 22 52  1  0  0  0  0
M  END
> <PUBCHEM_COMPOUND_CID>
75536514

> <PUBCHEM_CONFORMER_RMSD>
1

> <PUBCHEM_CONFORMER_DIVERSEORDER>
1
14
74
68
115
110
26
104
79
33
91
88
55
112
103
9
97
54
61
118
87
120
56
25
101
92
75
2
125
108
85
57
34
30
73
15
123
116
95
129
59
98
113
22
76
130
119
96
60
38
12
70
131
114
100
51
35
8
4
50
24
64
71
136
52
48
5
78
46
107
134
49
63
80
72
58
124
37
13
29
117
133
121
82
36
31
10
84
43
128
40
126
99
135
105
27
62
53
44
109
11
21
127
7
42
132
16
81
23
28
89
83
111
102
65
20
45
18
90
122
106
3
32
19
39
47
17
94
93
86
69
77
41
67
66
6

> <PUBCHEM_MMFF94_PARTIAL_CHARGES>
19
1 -0.56
10 0.27
11 0.28
14 0.3
15 0.28
16 0.28
18 0.06
19 0.57
2 -0.68
29 0.36
3 -0.56
4 -0.57
40 0.4
41 0.37
5 -0.9
6 -0.73
7 0.27
8 0.28
9 0.28

> <PUBCHEM_EFFECTIVE_ROTOR_COUNT>
9.2

> <PUBCHEM_PHARMACOPHORE_FEATURES>
11
1 1 acceptor
1 2 acceptor
1 2 donor
1 3 acceptor
1 4 acceptor
1 5 cation
1 5 donor
1 6 donor
4 17 20 21 22 hydrophobe
5 1 7 8 9 11 rings
6 3 10 12 13 15 16 rings

> <PUBCHEM_HEAVY_ATOM_COUNT>
22

> <PUBCHEM_ATOM_DEF_STEREO_COUNT>
3

> <PUBCHEM_ATOM_UDEF_STEREO_COUNT>
0

> <PUBCHEM_BOND_DEF_STEREO_COUNT>
0

> <PUBCHEM_BOND_UDEF_STEREO_COUNT>
0

> <PUBCHEM_ISOTOPIC_ATOM_COUNT>
0

> <PUBCHEM_COMPONENT_COUNT>
1

> <PUBCHEM_CACTVS_TAUTO_COUNT>
2

> <PUBCHEM_CONFORMER_ID>
0480988200000001

> <PUBCHEM_MMFF94_ENERGY>
40.5259

> <PUBCHEM_FEATURE_SELFOVERLAP>
55.822

> <PUBCHEM_SHAPE_FINGERPRINT>
10 15 17530972405735796369
10319926 262 15285632132553296719
10692045 39 17822561708438062754
11089746 13 18131350791333165074
11595378 159 16805874109285374260
12236239 1 18130787816190195287
12403259 118 16877664565321595423
12403259 415 18115021909842034358
12633257 1 18042392690460222244
12969540 114 18411688881674095127
13533116 47 18263361404729044762
13551218 46 11097854090567694553
13668630 136 10519696796402481421
13685833 64 9943803408809120781
13690498 29 16199007604609487967
13955234 65 18189897504774749586
14123256 34 8718551644350403016
1420 369 8502654809299964027
14211702 104 7853268953165665409
14251764 30 10015865388024650941
14251764 75 17899708044222028516
14366163 111 17703791414116764322
14528608 73 17703785929243060757
15183329 4 16343705430462946081
15348495 7 17313109695366391432
16079462 125 17749665195776006661
17349148 13 7925626739309227693
17834072 33 17131828776751637165
17870717 6 13830128387200632661
17959699 21 18131918152128348384
1813 80 11239997866905692874
18222031 100 10303809861025007935
20645477 56 18040432200407220246
20715895 44 18409727383211418568
21033648 29 17749105540057187645
21150785 3 16487248898404580309
21315763 76 18342172288888488696
21774942 28 17275109397443788288
22061861 79 11743833656070582337
22224240 67 18113623374724018555
23559900 14 18410300207616504486
25122255 55 9655282766289267109
2767999 5 18410007745379987045
2838139 119 17846495937211533961
2916195 48 18408886239519859907
293599 30 18334859402871428887
300161 21 18409726244997359191
3004659 81 15984829164753017374
3089732 80 10663817494504822085
3472631 163 18272088318274601382
34797466 226 17561086891127854157
3680242 22 18187358831684456008
4340502 62 17313106323991098643
465052 167 8070026688170258752
474 4 18411701014972413224
5104073 3 18187365432479926498
53917941 68 18335131025531156039
543368 44 18202561783393844793
59682541 52 16558465297211796773
960060 61 15195288612141577478

> <PUBCHEM_SHAPE_MULTIPOLES>
419.31
16.43
2.23
1.33
5.99
0.48
0.02
-12.36
0.67
-1.44
0.46
0.28
-0.21
0.66

> <PUBCHEM_SHAPE_SELFOVERLAP>
839.093

> <PUBCHEM_SHAPE_VOLUME>
248.3

> <PUBCHEM_COORDINATE_TYPE>
2
5
10

$$$$
