45360871
  -OEChem-12032416293D

 63 66  0     1  0  0  0  0  0999 V2000
   -0.5400   -0.7490   -1.2208 O   0  0  0  0  0  0  0  0  0  0  0  0
    5.8224    0.6269   -0.1937 O   0  0  0  0  0  0  0  0  0  0  0  0
    1.2252    2.0581    0.7777 N   0  0  1  0  0  0  0  0  0  0  0  0
   -2.1914    0.9623    0.0586 N   0  0  1  0  0  0  0  0  0  0  0  0
    0.9762    0.8525   -1.8315 N   0  0  0  0  0  0  0  0  0  0  0  0
    4.9350   -1.4785    0.1491 N   0  0  0  0  0  0  0  0  0  0  0  0
   -0.2304    2.2758    0.6255 C   0  0  1  0  0  0  0  0  0  0  0  0
   -0.9721    1.5454   -0.5323 C   0  0  1  0  0  0  0  0  0  0  0  0
   -1.0575    1.8521    1.8537 C   0  0  0  0  0  0  0  0  0  0  0  0
   -2.4557    1.6864    1.2969 C   0  0  0  0  0  0  0  0  0  0  0  0
    2.0440    2.5423   -0.3688 C   0  0  2  0  0  0  0  0  0  0  0  0
   -0.1790    0.4270   -1.2035 C   0  0  0  0  0  0  0  0  0  0  0  0
    1.4699    2.2135   -1.7608 C   0  0  0  0  0  0  0  0  0  0  0  0
    3.4679    1.9514   -0.3027 C   0  0  0  0  0  0  0  0  0  0  0  0
   -3.3362    0.9817   -0.8429 C   0  0  0  0  0  0  0  0  0  0  0  0
    1.7137    2.6450    2.0371 C   0  0  0  0  0  0  0  0  0  0  0  0
    3.4497    0.4511   -0.0830 C   0  0  0  0  0  0  0  0  0  0  0  0
   -4.3743   -0.0366   -0.4528 C   0  0  0  0  0  0  0  0  0  0  0  0
    4.8477   -0.1123   -0.0475 C   0  0  0  0  0  0  0  0  0  0  0  0
    3.8235   -2.4065    0.3323 C   0  0  0  0  0  0  0  0  0  0  0  0
    6.2116   -2.1759    0.2015 C   0  0  0  0  0  0  0  0  0  0  0  0
    4.4587   -3.7855    0.2235 C   0  0  0  0  0  0  0  0  0  0  0  0
    5.8703   -3.5537    0.7476 C   0  0  0  0  0  0  0  0  0  0  0  0
   -4.1676   -1.3868   -0.7359 C   0  0  0  0  0  0  0  0  0  0  0  0
   -5.5440    0.3704    0.1891 C   0  0  0  0  0  0  0  0  0  0  0  0
   -5.1306   -2.3298   -0.3771 C   0  0  0  0  0  0  0  0  0  0  0  0
   -6.5070   -0.5727    0.5478 C   0  0  0  0  0  0  0  0  0  0  0  0
   -6.3003   -1.9229    0.2650 C   0  0  0  0  0  0  0  0  0  0  0  0
   -7.3298   -2.9317    0.6480 C   0  0  0  0  0  0  0  0  0  0  0  0
   -0.4043    3.3547    0.4901 H   0  0  0  0  0  0  0  0  0  0  0  0
   -1.2440    2.2850   -1.2972 H   0  0  0  0  0  0  0  0  0  0  0  0
   -0.6987    0.8971    2.2605 H   0  0  0  0  0  0  0  0  0  0  0  0
   -1.0350    2.6005    2.6526 H   0  0  0  0  0  0  0  0  0  0  0  0
   -3.0902    1.1205    1.9857 H   0  0  0  0  0  0  0  0  0  0  0  0
   -2.9091    2.6697    1.1185 H   0  0  0  0  0  0  0  0  0  0  0  0
    2.1335    3.6366   -0.3213 H   0  0  0  0  0  0  0  0  0  0  0  0
    2.2255    2.3257   -2.5464 H   0  0  0  0  0  0  0  0  0  0  0  0
    0.6607    2.9048   -2.0165 H   0  0  0  0  0  0  0  0  0  0  0  0
    4.0162    2.1938   -1.2229 H   0  0  0  0  0  0  0  0  0  0  0  0
    4.0404    2.4373    0.4970 H   0  0  0  0  0  0  0  0  0  0  0  0
   -3.7774    1.9841   -0.9258 H   0  0  0  0  0  0  0  0  0  0  0  0
   -3.0190    0.7271   -1.8642 H   0  0  0  0  0  0  0  0  0  0  0  0
    1.5081    0.1706   -2.3635 H   0  0  0  0  0  0  0  0  0  0  0  0
    2.7796    2.4594    2.1950 H   0  0  0  0  0  0  0  0  0  0  0  0
    1.2291    2.1908    2.9070 H   0  0  0  0  0  0  0  0  0  0  0  0
    1.5467    3.7276    2.0703 H   0  0  0  0  0  0  0  0  0  0  0  0
    2.9485   -0.0671   -0.8977 H   0  0  0  0  0  0  0  0  0  0  0  0
    2.9629    0.1870    0.8611 H   0  0  0  0  0  0  0  0  0  0  0  0
    3.0423   -2.2489   -0.4157 H   0  0  0  0  0  0  0  0  0  0  0  0
    3.4053   -2.2353    1.3301 H   0  0  0  0  0  0  0  0  0  0  0  0
    6.9287   -1.6318    0.8232 H   0  0  0  0  0  0  0  0  0  0  0  0
    6.6015   -2.2332   -0.8208 H   0  0  0  0  0  0  0  0  0  0  0  0
    4.5010   -4.0976   -0.8270 H   0  0  0  0  0  0  0  0  0  0  0  0
    3.9121   -4.5469    0.7863 H   0  0  0  0  0  0  0  0  0  0  0  0
    5.8590   -3.5316    1.8440 H   0  0  0  0  0  0  0  0  0  0  0  0
    6.5784   -4.3222    0.4264 H   0  0  0  0  0  0  0  0  0  0  0  0
   -3.2620   -1.7172   -1.2372 H   0  0  0  0  0  0  0  0  0  0  0  0
   -5.7165    1.4190    0.4166 H   0  0  0  0  0  0  0  0  0  0  0  0
   -4.9576   -3.3790   -0.6018 H   0  0  0  0  0  0  0  0  0  0  0  0
   -7.4132   -0.2435    1.0493 H   0  0  0  0  0  0  0  0  0  0  0  0
   -7.1273   -3.3115    1.6543 H   0  0  0  0  0  0  0  0  0  0  0  0
   -8.3348   -2.4963    0.6329 H   0  0  0  0  0  0  0  0  0  0  0  0
   -7.3359   -3.7749   -0.0511 H   0  0  0  0  0  0  0  0  0  0  0  0
  1 12  2  0  0  0  0
  2 19  2  0  0  0  0
  3  7  1  0  0  0  0
  3 11  1  0  0  0  0
  3 16  1  0  0  0  0
  4  8  1  0  0  0  0
  4 10  1  0  0  0  0
  4 15  1  0  0  0  0
  5 12  1  0  0  0  0
  5 13  1  0  0  0  0
  5 43  1  0  0  0  0
  6 19  1  0  0  0  0
  6 20  1  0  0  0  0
  6 21  1  0  0  0  0
  7  8  1  0  0  0  0
  7  9  1  0  0  0  0
  7 30  1  0  0  0  0
  8 12  1  0  0  0  0
  8 31  1  0  0  0  0
  9 10  1  0  0  0  0
  9 32  1  0  0  0  0
  9 33  1  0  0  0  0
 10 34  1  0  0  0  0
 10 35  1  0  0  0  0
 11 13  1  0  0  0  0
 11 14  1  0  0  0  0
 11 36  1  0  0  0  0
 13 37  1  0  0  0  0
 13 38  1  0  0  0  0
 14 17  1  0  0  0  0
 14 39  1  0  0  0  0
 14 40  1  0  0  0  0
 15 18  1  0  0  0  0
 15 41  1  0  0  0  0
 15 42  1  0  0  0  0
 16 44  1  0  0  0  0
 16 45  1  0  0  0  0
 16 46  1  0  0  0  0
 17 19  1  0  0  0  0
 17 47  1  0  0  0  0
 17 48  1  0  0  0  0
 18 24  2  0  0  0  0
 18 25  1  0  0  0  0
 20 22  1  0  0  0  0
 20 49  1  0  0  0  0
 20 50  1  0  0  0  0
 21 23  1  0  0  0  0
 21 51  1  0  0  0  0
 21 52  1  0  0  0  0
 22 23  1  0  0  0  0
 22 53  1  0  0  0  0
 22 54  1  0  0  0  0
 23 55  1  0  0  0  0
 23 56  1  0  0  0  0
 24 26  1  0  0  0  0
 24 57  1  0  0  0  0
 25 27  2  0  0  0  0
 25 58  1  0  0  0  0
 26 28  2  0  0  0  0
 26 59  1  0  0  0  0
 27 28  1  0  0  0  0
 27 60  1  0  0  0  0
 28 29  1  0  0  0  0
 29 61  1  0  0  0  0
 29 62  1  0  0  0  0
 29 63  1  0  0  0  0
M  END
> <PUBCHEM_COMPOUND_CID>
45360871

> <PUBCHEM_CONFORMER_RMSD>
1

> <PUBCHEM_CONFORMER_DIVERSEORDER>
1
86
59
103
138
98
102
52
51
135
106
117
30
105
114
126
48
84
116
88
75
146
6
118
127
61
133
36
145
44
99
74
101
46
121
122
64
15
21
23
87
29
57
2
136
71
137
90
53
58
13
124
31
134
18
42
65
68
104
139
70
32
79
123
93
80
77
142
37
108
129
81
38
41
119
16
17
83
120
78
91
115
89
60
5
50
82
25
10
55
112
67
128
111
22
132
26
33
96
94
92
130
20
54
76
141
39
7
43
19
125
131
12
143
95
24
3
63
11
140
73
27
85
144
109
28
56
107
69
113
8
66
45
72
49
35
9
34
97
110
47
62
40
100
14
4

> <PUBCHEM_MMFF94_PARTIAL_CHARGES>
30
1 -0.57
10 0.27
11 0.27
12 0.57
13 0.3
15 0.41
16 0.27
17 0.06
18 -0.14
19 0.57
2 -0.57
20 0.3
21 0.3
24 -0.15
25 -0.15
26 -0.15
27 -0.15
28 -0.14
29 0.14
3 -0.81
4 -0.81
43 0.37
5 -0.73
57 0.15
58 0.15
59 0.15
6 -0.66
60 0.15
7 0.27
8 0.33

> <PUBCHEM_EFFECTIVE_ROTOR_COUNT>
8.4

> <PUBCHEM_PHARMACOPHORE_FEATURES>
9
1 1 acceptor
1 2 acceptor
1 3 cation
1 4 cation
1 5 donor
5 4 7 8 9 10 rings
5 6 20 21 22 23 rings
6 18 24 25 26 27 28 rings
7 3 5 7 8 11 12 13 rings

> <PUBCHEM_HEAVY_ATOM_COUNT>
29

> <PUBCHEM_ATOM_DEF_STEREO_COUNT>
3

> <PUBCHEM_ATOM_UDEF_STEREO_COUNT>
0

> <PUBCHEM_BOND_DEF_STEREO_COUNT>
0

> <PUBCHEM_BOND_UDEF_STEREO_COUNT>
0

> <PUBCHEM_ISOTOPIC_ATOM_COUNT>
0

> <PUBCHEM_COMPONENT_COUNT>
1

> <PUBCHEM_CACTVS_TAUTO_COUNT>
3

> <PUBCHEM_CONFORMER_ID>
02B426E700000001

> <PUBCHEM_MMFF94_ENERGY>
77.2397

> <PUBCHEM_FEATURE_SELFOVERLAP>
45.708

> <PUBCHEM_SHAPE_FINGERPRINT>
10074138 170 17129591120218429121
11497681 19 18337114450535108006
117089 54 17913218564042074774
11756154 67 18265336106296177246
11963148 33 18051128396110990543
12107183 9 18196660596865949929
12166972 35 18187088330138125174
12422481 6 16343705421815170989
12633257 1 15338533004378053504
13533116 47 18410013277303041536
1361 4 18262802998639915619
13782708 43 18186515497174811555
13955234 65 18126842931030581584
14251751 18 18409167710227990309
14251764 30 18334852771478925010
15019793 15 18051972812245706059
15064981 113 12974463059778677770
15142526 21 11095874969389849628
15475509 35 18342173422680214128
15927050 60 17769086092837301846
16728300 4 18270112414185990759
17492 89 18408039606728936485
19319366 153 18054506074472492516
1979834 28 16415214385373195605
19841028 212 18262516992847332450
20567600 247 18410009970320577083
20775530 9 18338780231556416502
21033648 29 14979675438291248809
21304253 335 10735874001841593250
21344244 181 17458631189596317427
22122407 14 10159703520502570126
23559900 14 18334568066929427021
24180151 214 17766023935627565896
2838139 119 9511457823037975904
33382 64 18409167739902643809
34797466 226 16660924516928588109
3610482 184 14418673820318355919
3680242 22 18272099318097406683
3886686 26 17336759915691447894
439807 62 18408887339247940939
46194498 28 17386002931279286404
465052 167 18272374199787842564
484985 159 17543905712200368244
5104073 3 17847064384781305249
70251023 43 18260550060248914445
7970288 3 18121776137174489874

> <PUBCHEM_SHAPE_MULTIPOLES>
565.14
17.39
4.3
1.4
10.07
2.91
0.12
20.83
2.44
-4.23
1.12
0
-1.01
-0.81

> <PUBCHEM_SHAPE_SELFOVERLAP>
1188.428

> <PUBCHEM_SHAPE_VOLUME>
319.1

> <PUBCHEM_COORDINATE_TYPE>
2
5
10

$$$$
