11911716
  -OEChem-12032416283D

 60 64  0     1  0  0  0  0  0999 V2000
   -2.2241    3.4170    1.3376 O   0  0  0  0  0  0  0  0  0  0  0  0
   -1.0217    0.5881    1.8744 O   0  0  0  0  0  0  0  0  0  0  0  0
   -5.7192   -0.2146    1.6171 O   0  0  0  0  0  0  0  0  0  0  0  0
    0.4729    3.2197   -0.1677 N   0  0  0  0  0  0  0  0  0  0  0  0
   -3.7606    0.2172    0.4526 N   0  0  0  0  0  0  0  0  0  0  0  0
    2.1963    1.6431   -0.3932 N   0  0  0  0  0  0  0  0  0  0  0  0
    1.8927    3.3868   -2.0286 N   0  0  0  0  0  0  0  0  0  0  0  0
    5.8560   -3.3455    0.9871 N   0  0  0  0  0  0  0  0  0  0  0  0
   -0.9506    1.4922    0.7589 C   0  0  1  0  0  0  0  0  0  0  0  0
   -2.3043    2.1643    0.6377 C   0  0  1  0  0  0  0  0  0  0  0  0
   -0.0008    2.6265    1.0636 C   0  0  2  0  0  0  0  0  0  0  0  0
   -3.2477    1.2229    1.3512 C   0  0  2  0  0  0  0  0  0  0  0  0
   -0.8834    3.6073    1.8133 C   0  0  0  0  0  0  0  0  0  0  0  0
   -2.3523    0.6081    2.4121 C   0  0  0  0  0  0  0  0  0  0  0  0
    1.5526    2.7353   -0.8846 C   0  0  0  0  0  0  0  0  0  0  0  0
   -4.9716   -0.4256    0.6659 C   0  0  0  0  0  0  0  0  0  0  0  0
   -5.3464   -1.4555   -0.3372 C   0  0  0  0  0  0  0  0  0  0  0  0
    3.2442    1.1980   -1.1170 C   0  0  0  0  0  0  0  0  0  0  0  0
   -6.1710   -2.4919    0.0484 C   0  0  0  0  0  0  0  0  0  0  0  0
   -4.8576   -1.3424   -1.6221 C   0  0  0  0  0  0  0  0  0  0  0  0
    2.9500    2.8880   -2.7022 C   0  0  0  0  0  0  0  0  0  0  0  0
    3.6705    1.7857   -2.2905 C   0  0  0  0  0  0  0  0  0  0  0  0
    3.9122    0.0374   -0.5783 C   0  0  0  0  0  0  0  0  0  0  0  0
   -6.5227   -3.4589   -0.8935 C   0  0  0  0  0  0  0  0  0  0  0  0
   -5.2093   -2.3093   -2.5639 C   0  0  0  0  0  0  0  0  0  0  0  0
   -6.0418   -3.3676   -2.1995 C   0  0  0  0  0  0  0  0  0  0  0  0
    5.2767   -0.1549   -0.8056 C   0  0  0  0  0  0  0  0  0  0  0  0
    3.1958   -0.8987    0.1708 C   0  0  0  0  0  0  0  0  0  0  0  0
    5.2036   -2.2107    0.4614 C   0  0  0  0  0  0  0  0  0  0  0  0
    5.9215   -1.2775   -0.2865 C   0  0  0  0  0  0  0  0  0  0  0  0
    3.8407   -2.0213    0.6900 C   0  0  0  0  0  0  0  0  0  0  0  0
    6.9964   -3.9196    0.3014 C   0  0  0  0  0  0  0  0  0  0  0  0
    5.4029   -3.9435    2.2271 C   0  0  0  0  0  0  0  0  0  0  0  0
   -0.6912    0.8983   -0.1234 H   0  0  0  0  0  0  0  0  0  0  0  0
   -2.5840    2.3838   -0.3978 H   0  0  0  0  0  0  0  0  0  0  0  0
    0.8405    2.3380    1.7041 H   0  0  0  0  0  0  0  0  0  0  0  0
   -4.0919    1.7404    1.8196 H   0  0  0  0  0  0  0  0  0  0  0  0
   -0.5974    4.6553    1.6800 H   0  0  0  0  0  0  0  0  0  0  0  0
   -0.8874    3.3874    2.8867 H   0  0  0  0  0  0  0  0  0  0  0  0
   -2.6399   -0.4069    2.7029 H   0  0  0  0  0  0  0  0  0  0  0  0
   -2.3286    1.2308    3.3132 H   0  0  0  0  0  0  0  0  0  0  0  0
   -0.0312    4.0016   -0.5703 H   0  0  0  0  0  0  0  0  0  0  0  0
   -3.1431   -0.0905   -0.2913 H   0  0  0  0  0  0  0  0  0  0  0  0
   -6.5496   -2.5804    1.0623 H   0  0  0  0  0  0  0  0  0  0  0  0
   -4.2363   -0.5172   -1.9541 H   0  0  0  0  0  0  0  0  0  0  0  0
    3.2065    3.4134   -3.6159 H   0  0  0  0  0  0  0  0  0  0  0  0
    4.4944    1.4245   -2.8925 H   0  0  0  0  0  0  0  0  0  0  0  0
   -7.1702   -4.2834   -0.6098 H   0  0  0  0  0  0  0  0  0  0  0  0
   -4.8416   -2.2345   -3.5832 H   0  0  0  0  0  0  0  0  0  0  0  0
   -6.3168   -4.1195   -2.9334 H   0  0  0  0  0  0  0  0  0  0  0  0
    5.8797    0.5604   -1.3587 H   0  0  0  0  0  0  0  0  0  0  0  0
    2.1298   -0.7880    0.3562 H   0  0  0  0  0  0  0  0  0  0  0  0
    6.9871   -1.3866   -0.4677 H   0  0  0  0  0  0  0  0  0  0  0  0
    3.2503   -2.7362    1.2561 H   0  0  0  0  0  0  0  0  0  0  0  0
    7.9058   -3.3483    0.5150 H   0  0  0  0  0  0  0  0  0  0  0  0
    7.1724   -4.9520    0.6241 H   0  0  0  0  0  0  0  0  0  0  0  0
    6.8388   -3.9518   -0.7827 H   0  0  0  0  0  0  0  0  0  0  0  0
    6.1815   -4.5755    2.6690 H   0  0  0  0  0  0  0  0  0  0  0  0
    5.1557   -3.1802    2.9737 H   0  0  0  0  0  0  0  0  0  0  0  0
    4.5249   -4.5749    2.0553 H   0  0  0  0  0  0  0  0  0  0  0  0
  1 10  1  0  0  0  0
  1 13  1  0  0  0  0
  2  9  1  0  0  0  0
  2 14  1  0  0  0  0
  3 16  2  0  0  0  0
  4 11  1  0  0  0  0
  4 15  1  0  0  0  0
  4 42  1  0  0  0  0
  5 12  1  0  0  0  0
  5 16  1  0  0  0  0
  5 43  1  0  0  0  0
  6 15  1  0  0  0  0
  6 18  2  0  0  0  0
  7 15  2  0  0  0  0
  7 21  1  0  0  0  0
  8 29  1  0  0  0  0
  8 32  1  0  0  0  0
  8 33  1  0  0  0  0
  9 10  1  0  0  0  0
  9 11  1  0  0  0  0
  9 34  1  0  0  0  0
 10 12  1  0  0  0  0
 10 35  1  0  0  0  0
 11 13  1  0  0  0  0
 11 36  1  0  0  0  0
 12 14  1  0  0  0  0
 12 37  1  0  0  0  0
 13 38  1  0  0  0  0
 13 39  1  0  0  0  0
 14 40  1  0  0  0  0
 14 41  1  0  0  0  0
 16 17  1  0  0  0  0
 17 19  2  0  0  0  0
 17 20  1  0  0  0  0
 18 22  1  0  0  0  0
 18 23  1  0  0  0  0
 19 24  1  0  0  0  0
 19 44  1  0  0  0  0
 20 25  2  0  0  0  0
 20 45  1  0  0  0  0
 21 22  2  0  0  0  0
 21 46  1  0  0  0  0
 22 47  1  0  0  0  0
 23 27  2  0  0  0  0
 23 28  1  0  0  0  0
 24 26  2  0  0  0  0
 24 48  1  0  0  0  0
 25 26  1  0  0  0  0
 25 49  1  0  0  0  0
 26 50  1  0  0  0  0
 27 30  1  0  0  0  0
 27 51  1  0  0  0  0
 28 31  2  0  0  0  0
 28 52  1  0  0  0  0
 29 30  2  0  0  0  0
 29 31  1  0  0  0  0
 30 53  1  0  0  0  0
 31 54  1  0  0  0  0
 32 55  1  0  0  0  0
 32 56  1  0  0  0  0
 32 57  1  0  0  0  0
 33 58  1  0  0  0  0
 33 59  1  0  0  0  0
 33 60  1  0  0  0  0
M  END
> <PUBCHEM_COMPOUND_CID>
11911716

> <PUBCHEM_CONFORMER_RMSD>
1

> <PUBCHEM_CONFORMER_DIVERSEORDER>
1
117
42
143
11
73
145
40
61
91
107
126
121
134
54
20
64
66
38
88
58
44
32
7
93
43
101
111
65
144
26
137
102
52
17
75
140
77
135
53
30
122
106
27
16
142
45
97
62
25
95
22
81
133
37
68
51
113
87
74
35
67
15
150
9
78
132
125
70
119
99
136
130
98
69
21
12
96
100
123
128
141
8
10
56
149
148
83
71
127
124
120
6
138
34
29
60
80
72
108
90
105
118
131
47
19
5
85
92
129
147
46
112
63
139
39
104
49
116
13
55
103
109
84
28
23
82
94
48
50
24
151
41
115
14
89
57
3
31
114
110
76
33
86
79
4
59
2
146
36
18

> <PUBCHEM_MMFF94_PARTIAL_CHARGES>
45
1 -0.56
10 0.28
11 0.37
12 0.3
13 0.28
14 0.28
15 0.72
16 0.54
17 0.09
18 0.31
19 -0.15
2 -0.56
20 -0.15
21 0.16
22 -0.15
24 -0.15
25 -0.15
26 -0.15
27 -0.15
28 -0.15
29 0.1
3 -0.57
30 -0.15
31 -0.15
32 0.37
33 0.37
4 -0.87
42 0.4
43 0.37
44 0.15
45 0.15
46 0.15
47 0.15
48 0.15
49 0.15
5 -0.73
50 0.15
51 0.15
52 0.15
53 0.15
54 0.15
6 -0.62
7 -0.62
8 -0.84
9 0.28

> <PUBCHEM_EFFECTIVE_ROTOR_COUNT>
8.2

> <PUBCHEM_PHARMACOPHORE_FEATURES>
13
1 1 acceptor
1 2 acceptor
1 3 acceptor
1 4 donor
1 5 donor
1 6 acceptor
1 8 cation
4 4 6 7 15 cation
5 1 9 10 11 13 rings
5 2 9 10 12 14 rings
6 17 19 20 24 25 26 rings
6 23 27 28 29 30 31 rings
6 6 7 15 18 21 22 rings

> <PUBCHEM_HEAVY_ATOM_COUNT>
33

> <PUBCHEM_ATOM_DEF_STEREO_COUNT>
4

> <PUBCHEM_ATOM_UDEF_STEREO_COUNT>
0

> <PUBCHEM_BOND_DEF_STEREO_COUNT>
0

> <PUBCHEM_BOND_UDEF_STEREO_COUNT>
0

> <PUBCHEM_ISOTOPIC_ATOM_COUNT>
0

> <PUBCHEM_COMPONENT_COUNT>
1

> <PUBCHEM_CACTVS_TAUTO_COUNT>
6

> <PUBCHEM_CONFORMER_ID>
00B5C22400000001

> <PUBCHEM_MMFF94_ENERGY>
117.6524

> <PUBCHEM_FEATURE_SELFOVERLAP>
66.679

> <PUBCHEM_SHAPE_FINGERPRINT>
10622 236 18408603630402848686
10908659 184 17987249983315238919
11069576 57 18334585676168649524
11135609 149 18262784268071481253
11135926 11 17606994882007073124
11227150 75 18337090329054884970
11478447 58 17908971442022732590
11497681 19 18339644435428027758
11607047 403 18127113390191066768
11828042 279 17023767671402094462
11828042 38 17823140184688619547
11828042 74 17535189943445833294
12166972 35 18334290985166326702
12559416 138 18188500073273347090
12977781 61 18054755530056821273
131258 38 18053086600233140822
14040221 275 15195276535311077982
14068700 675 18412261697093386384
14340393 91 17968638446874794823
15320294 125 18198354974665296705
15419009 47 18042955477057499389
15950262 2 11170497698950557762
15968369 26 17759227884098305971
16989713 51 17900543372922734006
17324776 126 18336538326994817554
19303781 99 18260832566149340218
19304671 126 16153701085467778349
19315092 285 18410294756485328869
19319366 153 17978512258460097172
20156587 76 17897976145919309136
20775438 99 18118113912480577666
208703 8 18201725084434769247
21458453 9 14764051419795586244
21585483 132 18269264819960799991
25025965 108 17608078777440126106
25222932 49 17845089752139689340
4015057 19 17968106355760423001
4017518 198 17185599009913196748
4394409 98 18131060516733480391
439807 62 18338519759391633743
46194498 28 16009899270816530588
463206 1 18269847556700914019
5047190 6 18198037297219864495
57035037 87 13190626105427928844
57527295 17 18196671772371126945
5874358 3 17605259706888134954
59025328 239 17967534571323537852
6034566 193 8070029991247892837
6058803 2 18266766643400715912
6201460 15 18338797810267339003
6636735 143 14261361258609460343
6677587 24 16884120012578710357
6691757 9 17770787810267604817
96874 4 18341890805422167743

> <PUBCHEM_SHAPE_MULTIPOLES>
636.61
18.66
5.96
2.52
5.39
1.08
-0.7
28.7
-3.2
-3.18
0.11
0.87
-0.61
-8.43

> <PUBCHEM_SHAPE_SELFOVERLAP>
1392.956

> <PUBCHEM_SHAPE_VOLUME>
344.4

> <PUBCHEM_COORDINATE_TYPE>
2
5
10

$$$$
