45784315
  -OEChem-12032416243D

 38 41  0     1  0  0  0  0  0999 V2000
    3.5504    0.3654   -0.1818 N   0  0  1  0  0  0  0  0  0  0  0  0
   -1.1372    0.6921   -1.1215 N   0  0  0  0  0  0  0  0  0  0  0  0
   -0.5248    0.0450    0.9148 N   0  0  0  0  0  0  0  0  0  0  0  0
   -7.0410   -0.4444   -0.7340 N   0  0  0  0  0  0  0  0  0  0  0  0
    4.5089   -0.6177    0.3363 C   0  0  0  0  0  0  0  0  0  0  0  0
    5.9308   -0.0196    0.3061 C   0  0  0  0  0  0  0  0  0  0  0  0
    4.9601   -1.5517   -0.8058 C   0  0  0  0  0  0  0  0  0  0  0  0
    1.3073    0.9098   -0.5961 C   0  0  2  0  0  0  0  0  0  0  0  0
    2.2772   -0.2770   -0.5195 C   0  0  0  0  0  0  0  0  0  0  0  0
    6.4009   -1.3644   -0.2862 C   0  0  0  0  0  0  0  0  0  0  0  0
    3.2119    1.3514    0.8460 C   0  0  0  0  0  0  0  0  0  0  0  0
    1.9419    1.9895    0.2980 C   0  0  0  0  0  0  0  0  0  0  0  0
   -0.1110    0.5369   -0.2315 C   0  0  0  0  0  0  0  0  0  0  0  0
   -2.2899    0.2724   -0.5087 C   0  0  0  0  0  0  0  0  0  0  0  0
   -1.8813   -0.1266    0.7610 C   0  0  0  0  0  0  0  0  0  0  0  0
   -3.6143    0.2092   -0.9427 C   0  0  0  0  0  0  0  0  0  0  0  0
   -2.8375   -0.6202    1.6645 C   0  0  0  0  0  0  0  0  0  0  0  0
   -4.5528   -0.2846   -0.0305 C   0  0  0  0  0  0  0  0  0  0  0  0
   -4.1734   -0.6924    1.2504 C   0  0  0  0  0  0  0  0  0  0  0  0
   -5.9263   -0.3728   -0.4188 C   0  0  0  0  0  0  0  0  0  0  0  0
    4.2433   -1.1335    1.2673 H   0  0  0  0  0  0  0  0  0  0  0  0
    6.3573    0.2364    1.2800 H   0  0  0  0  0  0  0  0  0  0  0  0
    6.0832    0.8248   -0.3779 H   0  0  0  0  0  0  0  0  0  0  0  0
    4.8269   -1.1700   -1.8260 H   0  0  0  0  0  0  0  0  0  0  0  0
    4.5771   -2.5751   -0.7609 H   0  0  0  0  0  0  0  0  0  0  0  0
    1.3124    1.2940   -1.6266 H   0  0  0  0  0  0  0  0  0  0  0  0
    1.9686   -0.9946    0.2527 H   0  0  0  0  0  0  0  0  0  0  0  0
    2.3222   -0.8070   -1.4772 H   0  0  0  0  0  0  0  0  0  0  0  0
    6.6968   -2.1007    0.4699 H   0  0  0  0  0  0  0  0  0  0  0  0
    7.1795   -1.3029   -1.0505 H   0  0  0  0  0  0  0  0  0  0  0  0
    4.0034    2.0941    0.9878 H   0  0  0  0  0  0  0  0  0  0  0  0
    2.9999    0.8785    1.8138 H   0  0  0  0  0  0  0  0  0  0  0  0
    2.1938    2.8657   -0.3124 H   0  0  0  0  0  0  0  0  0  0  0  0
    1.2846    2.3262    1.1066 H   0  0  0  0  0  0  0  0  0  0  0  0
   -1.0635    1.0517   -2.0640 H   0  0  0  0  0  0  0  0  0  0  0  0
   -3.8931    0.5300   -1.9412 H   0  0  0  0  0  0  0  0  0  0  0  0
   -2.5525   -0.9396    2.6619 H   0  0  0  0  0  0  0  0  0  0  0  0
   -4.9144   -1.0747    1.9500 H   0  0  0  0  0  0  0  0  0  0  0  0
  1  5  1  0  0  0  0
  1  9  1  0  0  0  0
  1 11  1  0  0  0  0
  2 13  1  0  0  0  0
  2 14  1  0  0  0  0
  2 35  1  0  0  0  0
  3 13  2  0  0  0  0
  3 15  1  0  0  0  0
  4 20  3  0  0  0  0
  5  6  1  0  0  0  0
  5  7  1  0  0  0  0
  5 21  1  0  0  0  0
  6 10  1  0  0  0  0
  6 22  1  0  0  0  0
  6 23  1  0  0  0  0
  7 10  1  0  0  0  0
  7 24  1  0  0  0  0
  7 25  1  0  0  0  0
  8  9  1  0  0  0  0
  8 12  1  0  0  0  0
  8 13  1  0  0  0  0
  8 26  1  0  0  0  0
  9 27  1  0  0  0  0
  9 28  1  0  0  0  0
 10 29  1  0  0  0  0
 10 30  1  0  0  0  0
 11 12  1  0  0  0  0
 11 31  1  0  0  0  0
 11 32  1  0  0  0  0
 12 33  1  0  0  0  0
 12 34  1  0  0  0  0
 14 15  2  0  0  0  0
 14 16  1  0  0  0  0
 15 17  1  0  0  0  0
 16 18  2  0  0  0  0
 16 36  1  0  0  0  0
 17 19  2  0  0  0  0
 17 37  1  0  0  0  0
 18 19  1  0  0  0  0
 18 20  1  0  0  0  0
 19 38  1  0  0  0  0
M  END
> <PUBCHEM_COMPOUND_CID>
45784315

> <PUBCHEM_CONFORMER_RMSD>
0.6

> <PUBCHEM_CONFORMER_DIVERSEORDER>
1
17
16
15
13
12
11
6
10
14
9
5
2
4
3
7
8

> <PUBCHEM_MMFF94_PARTIAL_CHARGES>
20
1 -0.75
11 0.27
13 0.01
14 -0.15
15 0.23
16 -0.15
17 -0.15
18 0.07
19 -0.15
2 0.03
20 0.48
3 -0.57
35 0.27
36 0.15
37 0.15
38 0.15
4 -0.56
5 0.21
8 0.18
9 0.27

> <PUBCHEM_EFFECTIVE_ROTOR_COUNT>
3.8

> <PUBCHEM_PHARMACOPHORE_FEATURES>
8
1 1 cation
1 2 donor
1 4 acceptor
3 2 3 13 cation
4 5 6 7 10 rings
5 1 8 9 11 12 rings
5 2 3 13 14 15 rings
6 14 15 16 17 18 19 rings

> <PUBCHEM_HEAVY_ATOM_COUNT>
20

> <PUBCHEM_ATOM_DEF_STEREO_COUNT>
1

> <PUBCHEM_ATOM_UDEF_STEREO_COUNT>
0

> <PUBCHEM_BOND_DEF_STEREO_COUNT>
0

> <PUBCHEM_BOND_UDEF_STEREO_COUNT>
0

> <PUBCHEM_ISOTOPIC_ATOM_COUNT>
0

> <PUBCHEM_COMPONENT_COUNT>
1

> <PUBCHEM_CACTVS_TAUTO_COUNT>
2

> <PUBCHEM_CONFORMER_ID>
02BA9CFB00000001

> <PUBCHEM_MMFF94_ENERGY>
41.0807

> <PUBCHEM_FEATURE_SELFOVERLAP>
40.704

> <PUBCHEM_SHAPE_FINGERPRINT>
10 15 13398620659233837478
106641 1 17131825487492594650
11315181 36 17822298989003050220
11796584 16 17603871126084623058
12011746 2 17894349973091656011
12107183 9 15621756028457444338
12166972 35 17704069616086166673
12236239 1 17275105028649241979
12390115 104 17241314765250491749
12403259 118 16271939202906480265
12516196 113 18343299263043167744
12596602 18 16774079553368036690
12616971 3 17060331955071609109
12788726 201 15357966833433552837
12954195 1 17895469220727303133
13288520 33 17749111084427267789
13533116 47 17917991689718972850
13544592 145 18040436628581637001
13668630 136 18342177769388032319
13685833 64 18411700980633773830
13911852 28 18128822928639983958
13914758 101 18131072589670335817
13964095 4 16515683325460310383
14211702 104 17560806580008874623
14251752 14 15647044950271930674
14251764 18 16988562424363311416
14386348 63 18187086144100010930
14528608 73 12973609954006781678
14617045 38 17385724677506870475
15183329 4 16660363653986062526
15242439 84 17821728351374472441
15690457 1 17632289086494423975
17834072 8 17385722504416708043
17844677 252 18409172099600729380
17870717 6 17313109639726813331
17980427 23 13110379304818819720
1813 80 18059591152657971140
18222031 100 18202010915220279140
19489759 90 18060422396232861569
19784866 240 18272375264918282084
200 152 18202280294936035809
20281389 69 12463569565429749770
20374829 77 17530685420083702658
20645477 70 18410853270232872220
20681677 155 14923948980618022320
20735858 18 15410894058929399310
20871999 31 16588025684625606628
21150785 3 12396301491540080531
21267235 1 18060422375069267942
21682296 61 18199195001143015246
2215653 11 18113052740230111499
22224240 67 17775560949716115094
2297311 6 17312824870752727981
23035841 295 16515401867789919985
23175994 123 18334860532363723929
23402539 116 17989487412125432065
23536379 177 18201999932962490305
23559900 14 17531249520972672197
23622692 88 17561083618278482516
239999 70 18113902676473410538
26918003 58 18202566198097862267
29717793 49 17822013116317179206
3004659 81 16732704960984533180
335352 9 16877941655627333047
345986 75 17630883812208529330
34797466 226 17458634419416634598
3545911 37 17094957749963346179
3633792 109 18059573539107476559
4325135 7 8934990469945175865
4340502 62 12319740267261690188
465052 167 18272936020808287502
5104073 3 15553876844993147563
59682541 35 13182728278138669391
59755656 215 17821725018501333219
67856867 119 16701729574698441280

> <PUBCHEM_SHAPE_MULTIPOLES>
391.67
16.02
1.31
1.16
0.6
0.25
-0.25
-6.82
1.53
-1.82
-0.01
0.95
-0.09
0.78

> <PUBCHEM_SHAPE_SELFOVERLAP>
856.028

> <PUBCHEM_SHAPE_VOLUME>
212.3

> <PUBCHEM_COORDINATE_TYPE>
2
5
10

$$$$
