40776867
  -OEChem-12032416393D

 65 69  0     1  0  0  0  0  0999 V2000
   -3.2476   -1.9696    1.8232 O   0  0  0  0  0  0  0  0  0  0  0  0
    1.1418   -2.4180    0.7252 N   0  0  2  0  0  0  0  0  0  0  0  0
    3.9836    0.8677    0.2005 N   0  0  2  0  0  0  0  0  0  0  0  0
   -1.9310   -0.2736    0.9448 N   0  0  0  0  0  0  0  0  0  0  0  0
   -7.8026    1.6165   -0.8321 N   0  0  0  0  0  0  0  0  0  0  0  0
    1.4935   -1.3746   -1.6316 C   0  0  2  0  0  0  0  0  0  0  0  0
    2.6206   -0.9458   -0.6646 C   0  0  2  0  0  0  0  0  0  0  0  0
   -0.0968   -1.7196    0.2873 C   0  0  2  0  0  0  0  0  0  0  0  0
    0.1317   -0.9648   -1.0412 C   0  0  0  0  0  0  0  0  0  0  0  0
    2.2844   -1.4729    0.7486 C   0  0  0  0  0  0  0  0  0  0  0  0
    1.5191   -2.9138   -1.6940 C   0  0  0  0  0  0  0  0  0  0  0  0
    1.4414   -3.4806   -0.2652 C   0  0  0  0  0  0  0  0  0  0  0  0
    2.8690    0.5608   -0.6594 C   0  0  0  0  0  0  0  0  0  0  0  0
   -0.6638   -0.8013    1.3724 C   0  0  0  0  0  0  0  0  0  0  0  0
    3.8695    1.7738    1.3414 C   0  0  0  0  0  0  0  0  0  0  0  0
    5.3044    0.9123   -0.2224 C   0  0  0  0  0  0  0  0  0  0  0  0
    5.2968    1.9748    1.8897 C   0  0  0  0  0  0  0  0  0  0  0  0
    6.1213    1.5578    0.7148 C   0  0  0  0  0  0  0  0  0  0  0  0
    5.8611    0.4073   -1.3873 C   0  0  0  0  0  0  0  0  0  0  0  0
   -3.1372   -0.9113    1.2097 C   0  0  0  0  0  0  0  0  0  0  0  0
    7.4842    1.7087    0.5231 C   0  0  0  0  0  0  0  0  0  0  0  0
    7.2351    0.5593   -1.6007 C   0  0  0  0  0  0  0  0  0  0  0  0
    8.0410    1.2054   -0.6519 C   0  0  0  0  0  0  0  0  0  0  0  0
   -4.3566   -0.2508    0.6769 C   0  0  0  0  0  0  0  0  0  0  0  0
   -5.4872   -1.0110    0.3779 C   0  0  0  0  0  0  0  0  0  0  0  0
   -4.3706    1.1293    0.4748 C   0  0  0  0  0  0  0  0  0  0  0  0
   -6.6319   -0.3913   -0.1234 C   0  0  0  0  0  0  0  0  0  0  0  0
   -5.5152    1.7491   -0.0266 C   0  0  0  0  0  0  0  0  0  0  0  0
   -6.6458    0.9889   -0.3257 C   0  0  0  0  0  0  0  0  0  0  0  0
   -8.9833    0.8364   -1.1460 C   0  0  0  0  0  0  0  0  0  0  0  0
   -7.8290    3.0511   -1.0383 C   0  0  0  0  0  0  0  0  0  0  0  0
    1.6341   -0.9454   -2.6292 H   0  0  0  0  0  0  0  0  0  0  0  0
    3.5422   -1.4446   -0.9962 H   0  0  0  0  0  0  0  0  0  0  0  0
   -0.8592   -2.4920    0.1064 H   0  0  0  0  0  0  0  0  0  0  0  0
    0.0913    0.1217   -0.9129 H   0  0  0  0  0  0  0  0  0  0  0  0
   -0.6660   -1.2264   -1.7480 H   0  0  0  0  0  0  0  0  0  0  0  0
    3.1630   -1.9856    1.1620 H   0  0  0  0  0  0  0  0  0  0  0  0
    2.0738   -0.6647    1.4559 H   0  0  0  0  0  0  0  0  0  0  0  0
    2.4369   -3.2611   -2.1828 H   0  0  0  0  0  0  0  0  0  0  0  0
    0.6747   -3.2786   -2.2912 H   0  0  0  0  0  0  0  0  0  0  0  0
    0.6756   -4.2646   -0.2160 H   0  0  0  0  0  0  0  0  0  0  0  0
    2.3847   -3.9765   -0.0033 H   0  0  0  0  0  0  0  0  0  0  0  0
    1.9796    1.0877   -0.2945 H   0  0  0  0  0  0  0  0  0  0  0  0
    3.0413    0.9318   -1.6772 H   0  0  0  0  0  0  0  0  0  0  0  0
   -0.0138    0.0567    1.5704 H   0  0  0  0  0  0  0  0  0  0  0  0
   -0.7994   -1.3510    2.3107 H   0  0  0  0  0  0  0  0  0  0  0  0
    3.2001    1.3796    2.1129 H   0  0  0  0  0  0  0  0  0  0  0  0
    3.4647    2.7376    1.0058 H   0  0  0  0  0  0  0  0  0  0  0  0
   -1.9067    0.5678    0.3790 H   0  0  0  0  0  0  0  0  0  0  0  0
    5.4875    1.3088    2.7378 H   0  0  0  0  0  0  0  0  0  0  0  0
    5.4706    3.0138    2.1828 H   0  0  0  0  0  0  0  0  0  0  0  0
    5.2587   -0.0994   -2.1340 H   0  0  0  0  0  0  0  0  0  0  0  0
    8.1052    2.2015    1.2630 H   0  0  0  0  0  0  0  0  0  0  0  0
    7.6846    0.1700   -2.5103 H   0  0  0  0  0  0  0  0  0  0  0  0
    9.1071    1.3101   -0.8335 H   0  0  0  0  0  0  0  0  0  0  0  0
   -5.4937   -2.0880    0.5243 H   0  0  0  0  0  0  0  0  0  0  0  0
   -3.5236    1.7614    0.7240 H   0  0  0  0  0  0  0  0  0  0  0  0
   -7.4851   -1.0261   -0.3413 H   0  0  0  0  0  0  0  0  0  0  0  0
   -5.4785    2.8259   -0.1598 H   0  0  0  0  0  0  0  0  0  0  0  0
   -9.7939    1.4656   -1.5303 H   0  0  0  0  0  0  0  0  0  0  0  0
   -9.3748    0.3347   -0.2540 H   0  0  0  0  0  0  0  0  0  0  0  0
   -8.7718    0.0931   -1.9228 H   0  0  0  0  0  0  0  0  0  0  0  0
   -8.7945    3.3854   -1.4345 H   0  0  0  0  0  0  0  0  0  0  0  0
   -7.0705    3.3606   -1.7660 H   0  0  0  0  0  0  0  0  0  0  0  0
   -7.6762    3.5894   -0.0963 H   0  0  0  0  0  0  0  0  0  0  0  0
  1 20  2  0  0  0  0
  2  8  1  0  0  0  0
  2 10  1  0  0  0  0
  2 12  1  0  0  0  0
  3 13  1  0  0  0  0
  3 15  1  0  0  0  0
  3 16  1  0  0  0  0
  4 14  1  0  0  0  0
  4 20  1  0  0  0  0
  4 49  1  0  0  0  0
  5 29  1  0  0  0  0
  5 30  1  0  0  0  0
  5 31  1  0  0  0  0
  6  7  1  0  0  0  0
  6  9  1  0  0  0  0
  6 11  1  0  0  0  0
  6 32  1  0  0  0  0
  7 10  1  0  0  0  0
  7 13  1  0  0  0  0
  7 33  1  0  0  0  0
  8  9  1  0  0  0  0
  8 14  1  0  0  0  0
  8 34  1  0  0  0  0
  9 35  1  0  0  0  0
  9 36  1  0  0  0  0
 10 37  1  0  0  0  0
 10 38  1  0  0  0  0
 11 12  1  0  0  0  0
 11 39  1  0  0  0  0
 11 40  1  0  0  0  0
 12 41  1  0  0  0  0
 12 42  1  0  0  0  0
 13 43  1  0  0  0  0
 13 44  1  0  0  0  0
 14 45  1  0  0  0  0
 14 46  1  0  0  0  0
 15 17  1  0  0  0  0
 15 47  1  0  0  0  0
 15 48  1  0  0  0  0
 16 18  1  0  0  0  0
 16 19  2  0  0  0  0
 17 18  1  0  0  0  0
 17 50  1  0  0  0  0
 17 51  1  0  0  0  0
 18 21  2  0  0  0  0
 19 22  1  0  0  0  0
 19 52  1  0  0  0  0
 20 24  1  0  0  0  0
 21 23  1  0  0  0  0
 21 53  1  0  0  0  0
 22 23  2  0  0  0  0
 22 54  1  0  0  0  0
 23 55  1  0  0  0  0
 24 25  2  0  0  0  0
 24 26  1  0  0  0  0
 25 27  1  0  0  0  0
 25 56  1  0  0  0  0
 26 28  2  0  0  0  0
 26 57  1  0  0  0  0
 27 29  2  0  0  0  0
 27 58  1  0  0  0  0
 28 29  1  0  0  0  0
 28 59  1  0  0  0  0
 30 60  1  0  0  0  0
 30 61  1  0  0  0  0
 30 62  1  0  0  0  0
 31 63  1  0  0  0  0
 31 64  1  0  0  0  0
 31 65  1  0  0  0  0
M  END
> <PUBCHEM_COMPOUND_CID>
40776867

> <PUBCHEM_CONFORMER_RMSD>
1

> <PUBCHEM_CONFORMER_DIVERSEORDER>
1
94
35
9
51
77
28
97
57
43
102
14
27
99
80
38
98
87
67
19
65
52
91
90
39
34
20
89
66
71
72
75
44
17
55
40
45
85
96
30
21
54
24
53
3
49
103
62
32
16
58
92
101
95
41
61
25
56
48
78
37
59
86
31
104
42
7
46
73
79
11
88
70
74
83
13
18
33
12
29
2
68
63
82
26
15
6
10
69
23
100
60
22
5
47
8
50
64
81
76
36
84
4
93

> <PUBCHEM_MMFF94_PARTIAL_CHARGES>
36
1 -0.57
10 0.27
12 0.27
13 0.37
14 0.3
15 0.37
16 0.1
17 0.14
18 -0.14
19 -0.15
2 -0.81
20 0.54
21 -0.15
22 -0.15
23 -0.15
24 0.09
25 -0.15
26 -0.15
27 -0.15
28 -0.15
29 0.1
3 -0.84
30 0.37
31 0.37
4 -0.73
49 0.37
5 -0.84
52 0.15
53 0.15
54 0.15
55 0.15
56 0.15
57 0.15
58 0.15
59 0.15
8 0.27

> <PUBCHEM_EFFECTIVE_ROTOR_COUNT>
8.8

> <PUBCHEM_PHARMACOPHORE_FEATURES>
9
1 1 acceptor
1 2 cation
1 3 cation
1 4 donor
1 5 cation
5 3 15 16 17 18 rings
6 16 18 19 21 22 23 rings
6 24 25 26 27 28 29 rings
8 2 6 7 8 9 10 11 12 rings

> <PUBCHEM_HEAVY_ATOM_COUNT>
31

> <PUBCHEM_ATOM_DEF_STEREO_COUNT>
3

> <PUBCHEM_ATOM_UDEF_STEREO_COUNT>
0

> <PUBCHEM_BOND_DEF_STEREO_COUNT>
0

> <PUBCHEM_BOND_UDEF_STEREO_COUNT>
0

> <PUBCHEM_ISOTOPIC_ATOM_COUNT>
0

> <PUBCHEM_COMPONENT_COUNT>
1

> <PUBCHEM_CACTVS_TAUTO_COUNT>
2

> <PUBCHEM_CONFORMER_ID>
026E34A300000001

> <PUBCHEM_MMFF94_ENERGY>
112.3249

> <PUBCHEM_FEATURE_SELFOVERLAP>
45.763

> <PUBCHEM_SHAPE_FINGERPRINT>
10006869 2 18337382756714366090
10625338 86 18114189682392767241
10674148 151 17894634799598617656
10763959 59 18338805610618343376
10835480 77 18410573960294348377
11135609 12 7925912564850874094
11135926 11 17489599969437308575
11297750 10 16446143471649242362
11374522 101 17677338337448674116
11387372 6 10951750990450179949
11409948 41 16773525348336906462
11621639 208 17831856850389706388
11991303 11 17203322364058347463
12778500 126 16153709838816783620
12838862 33 17846776335274787224
13150687 139 17775293767899975366
13673619 4 10592043557524147139
13685833 64 8502658095171498002
13782708 43 9799683801771021505
13911987 19 17632578245547265915
14117953 113 18409733971586022428
14150023 79 18413110533235363366
14251757 52 17823424958684781812
14767858 380 15554455093329614902
14904525 67 18120944073392539660
150020 25 18131631201511602661
15142383 8 18335704984107891680
15183329 4 16200159802664198052
15289351 153 18271806779490566184
15350500 55 18260544503109132477
15961568 22 18335140877869628413
18335252 114 17847062177647746400
20105231 36 14261344792047531597
20511986 3 18187356607181754539
20554085 129 18259705601201026866
20567600 254 18342742935681338530
20721686 146 18113621188037078108
20982279 24 13541309828928567301
21033648 29 18259991500104867498
21298829 104 18187930539298207637
21403212 168 18410852166816992058
21521239 73 16271938099411049694
21585481 151 11743828202359344709
21792938 703 14404319802996016911
21859007 373 18341609339710462720
24771293 8 18040997311710600989
2838139 119 18342175626341269512
3103668 31 17629189696486999311
335352 9 17560533880599343308
3411729 13 18113899338841418370
3918712 181 18408605889909944844
439807 62 12391513092040611073
504579 68 16630524021305879129
5104073 3 14707793795660132409
54039377 194 10375874082324009224
54728670 133 15141778683768678519
57634706 306 17916291909225352992
5937810 71 18130511830467415961
6058803 2 14565100352996743291
6691757 9 16009032826179610955
999808 66 8358261432214078697

> <PUBCHEM_SHAPE_MULTIPOLES>
612.17
25.86
3.05
1.61
21.64
1.25
0.04
-23.91
-7.57
0.12
-0.19
-0.83
0.11
3.13

> <PUBCHEM_SHAPE_SELFOVERLAP>
1321.413

> <PUBCHEM_SHAPE_VOLUME>
334.8

> <PUBCHEM_COORDINATE_TYPE>
2
5
10

$$$$
