11912188
  -OEChem-12032416363D

 63 68  0     1  0  0  0  0  0999 V2000
    3.1701    3.1022   -0.6575 S   0  0  0  0  0  0  0  0  0  0  0  0
   -0.6202    1.3891    1.5822 O   0  0  0  0  0  0  0  0  0  0  0  0
    1.6657   -0.7179    1.8999 O   0  0  0  0  0  0  0  0  0  0  0  0
    3.5867    3.9942    0.4076 O   0  0  0  0  0  0  0  0  0  0  0  0
    3.0128    3.6033   -2.0095 O   0  0  0  0  0  0  0  0  0  0  0  0
   -6.1823    2.5459   -0.7131 O   0  0  0  0  0  0  0  0  0  0  0  0
   -8.2782    1.7059    0.1290 O   0  0  0  0  0  0  0  0  0  0  0  0
    7.9497   -1.4915    1.2673 O   0  0  0  0  0  0  0  0  0  0  0  0
    1.7428    2.3041   -0.2008 N   0  0  0  0  0  0  0  0  0  0  0  0
   -0.8052   -2.1530    0.7202 N   0  0  0  0  0  0  0  0  0  0  0  0
   -2.9894   -1.5806    0.1779 N   0  0  0  0  0  0  0  0  0  0  0  0
   -1.9238   -3.5098   -0.7966 N   0  0  0  0  0  0  0  0  0  0  0  0
    7.0631   -1.3935   -0.9151 N   0  0  0  0  0  0  0  0  0  0  0  0
    1.2530    0.1356    0.8196 C   0  0  1  0  0  0  0  0  0  0  0  0
   -0.2614    0.2044    0.8518 C   0  0  1  0  0  0  0  0  0  0  0  0
    1.6930    1.5559    1.0790 C   0  0  2  0  0  0  0  0  0  0  0  0
   -0.6718   -1.0291    1.6211 C   0  0  2  0  0  0  0  0  0  0  0  0
    0.5726    2.1009    1.9431 C   0  0  0  0  0  0  0  0  0  0  0  0
    0.5032   -1.2433    2.5573 C   0  0  0  0  0  0  0  0  0  0  0  0
   -1.9561   -2.4263    0.0024 C   0  0  0  0  0  0  0  0  0  0  0  0
    4.3262    1.7672   -0.7340 C   0  0  0  0  0  0  0  0  0  0  0  0
    4.5065    1.0682   -1.9276 C   0  0  0  0  0  0  0  0  0  0  0  0
    5.0583    1.4128    0.3992 C   0  0  0  0  0  0  0  0  0  0  0  0
   -4.0950   -1.8767   -0.5364 C   0  0  0  0  0  0  0  0  0  0  0  0
   -3.0621   -3.7467   -1.4811 C   0  0  0  0  0  0  0  0  0  0  0  0
    5.4188    0.0148   -1.9880 C   0  0  0  0  0  0  0  0  0  0  0  0
    5.9705    0.3593    0.3388 C   0  0  0  0  0  0  0  0  0  0  0  0
   -4.1898   -2.9568   -1.3900 C   0  0  0  0  0  0  0  0  0  0  0  0
    6.1508   -0.3397   -0.8548 C   0  0  0  0  0  0  0  0  0  0  0  0
   -5.2043   -0.9719   -0.3519 C   0  0  0  0  0  0  0  0  0  0  0  0
   -5.0540    0.3817   -0.6625 C   0  0  0  0  0  0  0  0  0  0  0  0
   -6.4271   -1.4620    0.1396 C   0  0  0  0  0  0  0  0  0  0  0  0
   -6.1422    1.2076   -0.4691 C   0  0  0  0  0  0  0  0  0  0  0  0
   -7.5136   -0.6040    0.3261 C   0  0  0  0  0  0  0  0  0  0  0  0
   -7.3391    0.7281    0.0119 C   0  0  0  0  0  0  0  0  0  0  0  0
    7.8806   -1.8898    0.1092 C   0  0  0  0  0  0  0  0  0  0  0  0
   -7.5387    2.8547   -0.3325 C   0  0  0  0  0  0  0  0  0  0  0  0
    8.7299   -3.0433   -0.3626 C   0  0  0  0  0  0  0  0  0  0  0  0
    1.6434   -0.2965   -0.1075 H   0  0  0  0  0  0  0  0  0  0  0  0
   -0.7030    0.2929   -0.1460 H   0  0  0  0  0  0  0  0  0  0  0  0
    2.6343    1.6311    1.6253 H   0  0  0  0  0  0  0  0  0  0  0  0
   -1.5831   -0.8964    2.2157 H   0  0  0  0  0  0  0  0  0  0  0  0
    0.4033    3.1751    1.8210 H   0  0  0  0  0  0  0  0  0  0  0  0
    0.7618    1.9001    3.0034 H   0  0  0  0  0  0  0  0  0  0  0  0
    0.6782   -2.2913    2.8195 H   0  0  0  0  0  0  0  0  0  0  0  0
    0.3722   -0.6752    3.4850 H   0  0  0  0  0  0  0  0  0  0  0  0
    1.0025    2.1223   -0.8890 H   0  0  0  0  0  0  0  0  0  0  0  0
   -0.0068   -2.7549    0.5530 H   0  0  0  0  0  0  0  0  0  0  0  0
    3.9417    1.3222   -2.8200 H   0  0  0  0  0  0  0  0  0  0  0  0
    4.9408    1.9477    1.3373 H   0  0  0  0  0  0  0  0  0  0  0  0
   -3.0414   -4.6175   -2.1277 H   0  0  0  0  0  0  0  0  0  0  0  0
    5.5478   -0.5223   -2.9242 H   0  0  0  0  0  0  0  0  0  0  0  0
    6.5013    0.1447    1.2557 H   0  0  0  0  0  0  0  0  0  0  0  0
   -5.0800   -3.1839   -1.9635 H   0  0  0  0  0  0  0  0  0  0  0  0
   -4.1203    0.7816   -1.0453 H   0  0  0  0  0  0  0  0  0  0  0  0
   -6.5460   -2.5146    0.3881 H   0  0  0  0  0  0  0  0  0  0  0  0
    7.1369   -1.8525   -1.8206 H   0  0  0  0  0  0  0  0  0  0  0  0
   -8.4576   -0.9775    0.7062 H   0  0  0  0  0  0  0  0  0  0  0  0
   -7.5166    3.6028    0.4684 H   0  0  0  0  0  0  0  0  0  0  0  0
   -8.0576    3.2815   -1.1985 H   0  0  0  0  0  0  0  0  0  0  0  0
    9.3727   -3.3880    0.4521 H   0  0  0  0  0  0  0  0  0  0  0  0
    8.0873   -3.8686   -0.6821 H   0  0  0  0  0  0  0  0  0  0  0  0
    9.3582   -2.7241   -1.1989 H   0  0  0  0  0  0  0  0  0  0  0  0
  1  4  2  0  0  0  0
  1  5  2  0  0  0  0
  1  9  1  0  0  0  0
  1 21  1  0  0  0  0
  2 15  1  0  0  0  0
  2 18  1  0  0  0  0
  3 14  1  0  0  0  0
  3 19  1  0  0  0  0
  6 33  1  0  0  0  0
  6 37  1  0  0  0  0
  7 35  1  0  0  0  0
  7 37  1  0  0  0  0
  8 36  2  0  0  0  0
  9 16  1  0  0  0  0
  9 47  1  0  0  0  0
 10 17  1  0  0  0  0
 10 20  1  0  0  0  0
 10 48  1  0  0  0  0
 11 20  1  0  0  0  0
 11 24  2  0  0  0  0
 12 20  2  0  0  0  0
 12 25  1  0  0  0  0
 13 29  1  0  0  0  0
 13 36  1  0  0  0  0
 13 57  1  0  0  0  0
 14 15  1  0  0  0  0
 14 16  1  0  0  0  0
 14 39  1  0  0  0  0
 15 17  1  0  0  0  0
 15 40  1  0  0  0  0
 16 18  1  0  0  0  0
 16 41  1  0  0  0  0
 17 19  1  0  0  0  0
 17 42  1  0  0  0  0
 18 43  1  0  0  0  0
 18 44  1  0  0  0  0
 19 45  1  0  0  0  0
 19 46  1  0  0  0  0
 21 22  2  0  0  0  0
 21 23  1  0  0  0  0
 22 26  1  0  0  0  0
 22 49  1  0  0  0  0
 23 27  2  0  0  0  0
 23 50  1  0  0  0  0
 24 28  1  0  0  0  0
 24 30  1  0  0  0  0
 25 28  2  0  0  0  0
 25 51  1  0  0  0  0
 26 29  2  0  0  0  0
 26 52  1  0  0  0  0
 27 29  1  0  0  0  0
 27 53  1  0  0  0  0
 28 54  1  0  0  0  0
 30 31  2  0  0  0  0
 30 32  1  0  0  0  0
 31 33  1  0  0  0  0
 31 55  1  0  0  0  0
 32 34  2  0  0  0  0
 32 56  1  0  0  0  0
 33 35  2  0  0  0  0
 34 35  1  0  0  0  0
 34 58  1  0  0  0  0
 36 38  1  0  0  0  0
 37 59  1  0  0  0  0
 37 60  1  0  0  0  0
 38 61  1  0  0  0  0
 38 62  1  0  0  0  0
 38 63  1  0  0  0  0
M  END
> <PUBCHEM_COMPOUND_CID>
11912188

> <PUBCHEM_CONFORMER_RMSD>
1.6

> <PUBCHEM_CONFORMER_DIVERSEORDER>
1
60
27
20
21
54
90
76
16
53
80
68
33
61
82
52
63
18
85
3
70
67
4
28
39
11
26
84
36
30
58
49
25
56
45
40
29
46
41
59
75
79
81
19
89
91
44
10
66
86
57
87
48
6
77
73
69
14
83
51
7
71
23
64
65
32
74
42
13
43
31
78
72
47
12
38
37
8
17
9
24
35
22
88
62
5
15
50
34
2
55

> <PUBCHEM_MMFF94_PARTIAL_CHARGES>
49
1 1.45
10 -0.87
11 -0.62
12 -0.62
13 -0.55
14 0.28
15 0.28
16 0.36
17 0.37
18 0.28
19 0.28
2 -0.56
20 0.72
21 -0.01
22 -0.15
23 -0.15
24 0.31
25 0.16
26 -0.15
27 -0.15
28 -0.15
29 0.12
3 -0.56
31 -0.15
32 -0.15
33 0.08
34 -0.15
35 0.08
36 0.57
37 0.56
38 0.06
4 -0.65
47 0.42
48 0.4
49 0.15
5 -0.65
50 0.15
51 0.15
52 0.15
53 0.15
54 0.15
55 0.15
56 0.15
57 0.37
58 0.15
6 -0.36
7 -0.36
8 -0.57
9 -0.91

> <PUBCHEM_EFFECTIVE_ROTOR_COUNT>
9.8

> <PUBCHEM_PHARMACOPHORE_FEATURES>
18
1 10 donor
1 11 acceptor
1 13 donor
1 2 acceptor
1 3 acceptor
1 4 acceptor
1 5 acceptor
1 6 acceptor
1 7 acceptor
1 8 acceptor
1 9 donor
4 10 11 12 20 cation
5 2 14 15 16 18 rings
5 3 14 15 17 19 rings
5 6 7 33 35 37 rings
6 11 12 20 24 25 28 rings
6 21 22 23 26 27 29 rings
6 30 31 32 33 34 35 rings

> <PUBCHEM_HEAVY_ATOM_COUNT>
38

> <PUBCHEM_ATOM_DEF_STEREO_COUNT>
4

> <PUBCHEM_ATOM_UDEF_STEREO_COUNT>
0

> <PUBCHEM_BOND_DEF_STEREO_COUNT>
0

> <PUBCHEM_BOND_UDEF_STEREO_COUNT>
0

> <PUBCHEM_ISOTOPIC_ATOM_COUNT>
0

> <PUBCHEM_COMPONENT_COUNT>
1

> <PUBCHEM_CACTVS_TAUTO_COUNT>
6

> <PUBCHEM_CONFORMER_ID>
00B5C3FC00000001

> <PUBCHEM_MMFF94_ENERGY>
102.7879

> <PUBCHEM_FEATURE_SELFOVERLAP>
92.232

> <PUBCHEM_SHAPE_FINGERPRINT>
10055352 69 11386669420128213502
10190108 129 17240765051705800805
10483366 6 18261678090991337618
10670039 82 18409161135197594997
10674148 151 18259702303156377056
10842051 180 10159690257627793752
10864689 126 18342168943937569145
11135609 201 9439394706690438102
11991303 11 15068628239638831473
12373685 5 14189287192538242379
12857493 111 17346878944762197960
13761468 95 18261385599804029477
13782708 43 16986032581874953447
14068700 686 11531019877863944209
14117953 113 18343306925492132422
14664723 55 18411422796383454753
14856354 85 17095245860907570659
15183329 4 17845106214806798361
15230672 131 18411978044785105775
15328829 1 18410290298388052874
15419009 47 18412260653374057559
15444296 9 18261393287246603574
15475509 8 18186238437756894428
15684389 69 9727625107757359014
16628084 112 17750786641680807826
16992727 255 18411139108616832643
21315764 119 18272091616777933326
21458453 9 11530481155763115165
22864921 10 18041555837716215461
23559900 14 17489019495900996395
249057 3 18409729543431911622
2835447 4 10087650290378333868
3459 83 18340492256611310138
3610482 184 17898862502467589093
38570 142 18040434421464319083
4173938 77 16660930001195838917
437795 139 15338260411504656997
437795 51 12107791821985993238
4394409 98 18273500078431332998
444735 79 8502653692677298853
508180 173 18342176700363137281
5085150 59 17847063281038026478
5223283 242 15574715782143451054
6126387 218 18412538830612502298
613672 6 14692026828392005351
6443934 186 9511472112673783636
6523845 18 16008743632418759054

> <PUBCHEM_SHAPE_MULTIPOLES>
719.88
25.15
4.51
1.77
0.91
0.24
0.35
-3.16
-6.01
0.26
-1.48
1.62
0.03
-1.22

> <PUBCHEM_SHAPE_SELFOVERLAP>
1576.069

> <PUBCHEM_SHAPE_VOLUME>
393.5

> <PUBCHEM_COORDINATE_TYPE>
2
5
10

$$$$
