75536057
  -OEChem-12032416293D

 45 47  0     1  0  0  0  0  0999 V2000
    0.8148   -3.3172    0.4660 O   0  0  0  0  0  0  0  0  0  0  0  0
    3.4891   -2.7327    0.6798 O   0  0  0  0  0  0  0  0  0  0  0  0
   -0.9688   -0.9289    1.6625 O   0  0  0  0  0  0  0  0  0  0  0  0
   -5.9370   -0.2800    0.7965 O   0  0  0  0  0  0  0  0  0  0  0  0
   -0.0413   -0.4660   -0.4125 N   0  0  0  0  0  0  0  0  0  0  0  0
    2.3617   -0.3137   -0.9935 C   0  0  2  0  0  0  0  0  0  0  0  0
    1.2712   -0.9914   -0.1333 C   0  0  2  0  0  0  0  0  0  0  0  0
    1.3868   -2.4676   -0.5105 C   0  0  1  0  0  0  0  0  0  0  0  0
    3.3866   -1.4275   -1.3305 C   0  0  0  0  0  0  0  0  0  0  0  0
    2.8922   -2.6816   -0.6124 C   0  0  1  0  0  0  0  0  0  0  0  0
    2.9633    0.9083   -0.3321 C   0  0  0  0  0  0  0  0  0  0  0  0
    2.3852    2.1626   -0.5275 C   0  0  0  0  0  0  0  0  0  0  0  0
    4.0956    0.7796    0.4722 C   0  0  0  0  0  0  0  0  0  0  0  0
   -1.0666   -0.4793    0.5237 C   0  0  0  0  0  0  0  0  0  0  0  0
    2.9394    3.2885    0.0819 C   0  0  0  0  0  0  0  0  0  0  0  0
    4.6498    1.9056    1.0814 C   0  0  0  0  0  0  0  0  0  0  0  0
   -2.3683    0.0760    0.0720 C   0  0  0  0  0  0  0  0  0  0  0  0
    4.0716    3.1598    0.8864 C   0  0  0  0  0  0  0  0  0  0  0  0
   -3.5559   -0.3685    0.6534 C   0  0  0  0  0  0  0  0  0  0  0  0
   -2.4031    1.0420   -0.9337 C   0  0  0  0  0  0  0  0  0  0  0  0
   -4.7781    0.1530    0.2293 C   0  0  0  0  0  0  0  0  0  0  0  0
   -3.6253    1.5635   -1.3580 C   0  0  0  0  0  0  0  0  0  0  0  0
   -4.8128    1.1192   -0.7763 C   0  0  0  0  0  0  0  0  0  0  0  0
   -7.1503    0.2962    0.3151 C   0  0  0  0  0  0  0  0  0  0  0  0
    1.9370    0.0142   -1.9540 H   0  0  0  0  0  0  0  0  0  0  0  0
    1.4681   -0.8641    0.9396 H   0  0  0  0  0  0  0  0  0  0  0  0
    0.9006   -2.6620   -1.4749 H   0  0  0  0  0  0  0  0  0  0  0  0
    3.3211   -1.6123   -2.4119 H   0  0  0  0  0  0  0  0  0  0  0  0
    4.4359   -1.1998   -1.1312 H   0  0  0  0  0  0  0  0  0  0  0  0
    3.1445   -3.6073   -1.1383 H   0  0  0  0  0  0  0  0  0  0  0  0
   -0.2299   -0.1798   -1.3674 H   0  0  0  0  0  0  0  0  0  0  0  0
    1.0076   -4.2337    0.2044 H   0  0  0  0  0  0  0  0  0  0  0  0
    4.4486   -2.8291    0.5543 H   0  0  0  0  0  0  0  0  0  0  0  0
    1.5017    2.2760   -1.1502 H   0  0  0  0  0  0  0  0  0  0  0  0
    4.5542   -0.1794    0.6866 H   0  0  0  0  0  0  0  0  0  0  0  0
    2.4887    4.2650   -0.0691 H   0  0  0  0  0  0  0  0  0  0  0  0
    5.5257    1.8047    1.7158 H   0  0  0  0  0  0  0  0  0  0  0  0
    4.5016    4.0360    1.3628 H   0  0  0  0  0  0  0  0  0  0  0  0
   -3.5437   -1.1242    1.4351 H   0  0  0  0  0  0  0  0  0  0  0  0
   -1.5005    1.4374   -1.3904 H   0  0  0  0  0  0  0  0  0  0  0  0
   -3.6512    2.3209   -2.1362 H   0  0  0  0  0  0  0  0  0  0  0  0
   -5.7260    1.5677   -1.1522 H   0  0  0  0  0  0  0  0  0  0  0  0
   -7.9710   -0.1632    0.8759 H   0  0  0  0  0  0  0  0  0  0  0  0
   -7.3153    0.0621   -0.7421 H   0  0  0  0  0  0  0  0  0  0  0  0
   -7.1911    1.3726    0.5134 H   0  0  0  0  0  0  0  0  0  0  0  0
  1  8  1  0  0  0  0
  1 32  1  0  0  0  0
  2 10  1  0  0  0  0
  2 33  1  0  0  0  0
  3 14  2  0  0  0  0
  4 21  1  0  0  0  0
  4 24  1  0  0  0  0
  5  7  1  0  0  0  0
  5 14  1  0  0  0  0
  5 31  1  0  0  0  0
  6  7  1  0  0  0  0
  6  9  1  0  0  0  0
  6 11  1  0  0  0  0
  6 25  1  0  0  0  0
  7  8  1  0  0  0  0
  7 26  1  0  0  0  0
  8 10  1  0  0  0  0
  8 27  1  0  0  0  0
  9 10  1  0  0  0  0
  9 28  1  0  0  0  0
  9 29  1  0  0  0  0
 10 30  1  0  0  0  0
 11 12  2  0  0  0  0
 11 13  1  0  0  0  0
 12 15  1  0  0  0  0
 12 34  1  0  0  0  0
 13 16  2  0  0  0  0
 13 35  1  0  0  0  0
 14 17  1  0  0  0  0
 15 18  2  0  0  0  0
 15 36  1  0  0  0  0
 16 18  1  0  0  0  0
 16 37  1  0  0  0  0
 17 19  2  0  0  0  0
 17 20  1  0  0  0  0
 18 38  1  0  0  0  0
 19 21  1  0  0  0  0
 19 39  1  0  0  0  0
 20 22  2  0  0  0  0
 20 40  1  0  0  0  0
 21 23  2  0  0  0  0
 22 23  1  0  0  0  0
 22 41  1  0  0  0  0
 23 42  1  0  0  0  0
 24 43  1  0  0  0  0
 24 44  1  0  0  0  0
 24 45  1  0  0  0  0
M  END
> <PUBCHEM_COMPOUND_CID>
75536057

> <PUBCHEM_CONFORMER_RMSD>
0.8

> <PUBCHEM_CONFORMER_DIVERSEORDER>
2
34
25
24
9
37
16
23
22
38
30
7
33
6
36
15
12
35
28
19
20
18
32
14
4
39
5
10
8
26
31
3
11
21
17
29
1
13
27

> <PUBCHEM_MMFF94_PARTIAL_CHARGES>
35
1 -0.68
10 0.28
11 -0.14
12 -0.15
13 -0.15
14 0.54
15 -0.15
16 -0.15
17 0.09
18 -0.15
19 -0.15
2 -0.68
20 -0.15
21 0.08
22 -0.15
23 -0.15
24 0.28
3 -0.57
31 0.37
32 0.4
33 0.4
34 0.15
35 0.15
36 0.15
37 0.15
38 0.15
39 0.15
4 -0.36
40 0.15
41 0.15
42 0.15
5 -0.73
6 0.14
7 0.3
8 0.28

> <PUBCHEM_EFFECTIVE_ROTOR_COUNT>
6

> <PUBCHEM_PHARMACOPHORE_FEATURES>
10
1 1 acceptor
1 1 donor
1 2 acceptor
1 2 donor
1 3 acceptor
1 4 acceptor
1 5 donor
5 6 7 8 9 10 rings
6 11 12 13 15 16 18 rings
6 17 19 20 21 22 23 rings

> <PUBCHEM_HEAVY_ATOM_COUNT>
24

> <PUBCHEM_ATOM_DEF_STEREO_COUNT>
4

> <PUBCHEM_ATOM_UDEF_STEREO_COUNT>
0

> <PUBCHEM_BOND_DEF_STEREO_COUNT>
0

> <PUBCHEM_BOND_UDEF_STEREO_COUNT>
0

> <PUBCHEM_ISOTOPIC_ATOM_COUNT>
0

> <PUBCHEM_COMPONENT_COUNT>
1

> <PUBCHEM_CACTVS_TAUTO_COUNT>
2

> <PUBCHEM_CONFORMER_ID>
048096B900000002

> <PUBCHEM_MMFF94_ENERGY>
81.6849

> <PUBCHEM_FEATURE_SELFOVERLAP>
50.758

> <PUBCHEM_SHAPE_FINGERPRINT>
10165383 225 18262811764963462516
10411042 1 17980767043767085222
10871710 139 16388471282037180796
12035758 1 18339060641892408192
12166972 35 17988081067680803538
12236239 1 17060625494922495429
12403259 226 18043810879332637006
12403259 327 16878217692658794224
12403259 415 18260548900876023157
12616971 3 17988636359918143175
12633257 1 16950836033215836644
12730499 353 18410301332169454833
12769317 202 18272080634636637632
13034934 17 18189346834543504707
13134695 92 18194395590117175494
13402501 40 18334573564171464052
13533116 47 18411990135223077909
13955234 65 18411420574750992611
14170010 4 18202003214385972350
14461889 52 18263930002722560619
17492 54 10375302418730971858
17844677 252 18270125604689659881
17980427 23 17844217754094354558
1979834 28 18334861657629429077
20157964 124 18413671322793048881
20369508 70 18336829671932065334
20645477 70 18200882776923591783
21033648 29 17821728304499396541
2132832 1 17916306026555729000
21403212 168 18272360998076122760
21452121 103 18408880733060602184
21792934 111 18040999498054675757
21859007 373 17314772033058026589
22149856 69 18189924010145749531
22182313 1 17967524650159586893
23557571 272 17603868884254145117
23559900 14 17967824811985127143
239999 70 18201164269017011127
34797466 226 17988933262770698221
42630746 31 18342177773471483237
4340502 62 18341053007631445379
474 4 18271526493840085544
495365 180 18409168805265562314
5104073 3 18262242114987484561
5281201 14 18338520737995122901
5385378 56 18413670223460925424
57124632 79 18411125957685760040
621550 34 18334573538575227117
70251023 43 17773615822734601302
7399639 24 18334571343867992437
7471813 234 17774437153789021848
7808743 9 17830180465136302364
9777508 108 18191872438296060338

> <PUBCHEM_SHAPE_MULTIPOLES>
465.45
12.87
3.52
1.18
20.59
0.44
-0.03
-5.6
1.81
-6.41
0.21
0.01
-0.03
1.74

> <PUBCHEM_SHAPE_SELFOVERLAP>
999.685

> <PUBCHEM_SHAPE_VOLUME>
256.7

> <PUBCHEM_COORDINATE_TYPE>
2
5
10

$$$$
