56775475
  -OEChem-12032416323D

 44 47  0     0  0  0  0  0  0999 V2000
    6.7384    2.4417    0.5151 F   0  0  0  0  0  0  0  0  0  0  0  0
   -2.9933   -3.4651    1.2199 O   0  0  0  0  0  0  0  0  0  0  0  0
    2.4154   -2.0813   -0.0342 O   0  0  0  0  0  0  0  0  0  0  0  0
   -2.1904   -0.6668    0.3965 N   0  0  0  0  0  0  0  0  0  0  0  0
    1.2292   -2.7536   -0.3026 N   0  0  0  0  0  0  0  0  0  0  0  0
   -1.9395   -2.0507    0.0181 C   0  0  0  0  0  0  0  0  0  0  0  0
   -1.6792   -2.8653    1.2800 C   0  0  0  0  0  0  0  0  0  0  0  0
   -3.2691   -2.7949   -0.0310 C   0  0  0  0  0  0  0  0  0  0  0  0
   -0.9710   -2.1807   -1.1651 C   0  0  0  0  0  0  0  0  0  0  0  0
    0.3998   -1.8174   -0.7721 C   0  0  0  0  0  0  0  0  0  0  0  0
   -2.6878    0.0786   -0.7574 C   0  0  0  0  0  0  0  0  0  0  0  0
   -3.5063    1.2725   -0.3431 C   0  0  0  0  0  0  0  0  0  0  0  0
    1.0013   -0.5480   -0.8220 C   0  0  0  0  0  0  0  0  0  0  0  0
    2.2672   -0.7686   -0.3476 C   0  0  0  0  0  0  0  0  0  0  0  0
   -4.8832    1.1453   -0.1600 C   0  0  0  0  0  0  0  0  0  0  0  0
   -2.8871    2.5060   -0.1418 C   0  0  0  0  0  0  0  0  0  0  0  0
    3.4245    0.0628   -0.1233 C   0  0  0  0  0  0  0  0  0  0  0  0
   -5.6410    2.2516    0.2242 C   0  0  0  0  0  0  0  0  0  0  0  0
   -3.6447    3.6124    0.2426 C   0  0  0  0  0  0  0  0  0  0  0  0
   -5.0217    3.4851    0.4255 C   0  0  0  0  0  0  0  0  0  0  0  0
    3.3719    1.4254   -0.4172 C   0  0  0  0  0  0  0  0  0  0  0  0
    4.5963   -0.4959    0.3867 C   0  0  0  0  0  0  0  0  0  0  0  0
    4.4913    2.2291   -0.2016 C   0  0  0  0  0  0  0  0  0  0  0  0
    5.7158    0.3076    0.6023 C   0  0  0  0  0  0  0  0  0  0  0  0
    5.6633    1.6701    0.3082 C   0  0  0  0  0  0  0  0  0  0  0  0
   -1.5316   -2.3158    2.2158 H   0  0  0  0  0  0  0  0  0  0  0  0
   -0.9129   -3.6434    1.2075 H   0  0  0  0  0  0  0  0  0  0  0  0
   -3.3711   -3.5230   -0.8430 H   0  0  0  0  0  0  0  0  0  0  0  0
   -4.1952   -2.2146    0.0335 H   0  0  0  0  0  0  0  0  0  0  0  0
   -1.2906   -1.6146   -2.0465 H   0  0  0  0  0  0  0  0  0  0  0  0
   -0.9695   -3.2273   -1.5022 H   0  0  0  0  0  0  0  0  0  0  0  0
   -1.3946   -0.1786    0.8053 H   0  0  0  0  0  0  0  0  0  0  0  0
   -3.3164   -0.5323   -1.4191 H   0  0  0  0  0  0  0  0  0  0  0  0
   -1.8567    0.4303   -1.3805 H   0  0  0  0  0  0  0  0  0  0  0  0
    0.5744    0.3856   -1.1575 H   0  0  0  0  0  0  0  0  0  0  0  0
   -5.3779    0.1897   -0.3122 H   0  0  0  0  0  0  0  0  0  0  0  0
   -1.8147    2.6176   -0.2792 H   0  0  0  0  0  0  0  0  0  0  0  0
   -6.7131    2.1525    0.3670 H   0  0  0  0  0  0  0  0  0  0  0  0
   -3.1626    4.5727    0.3999 H   0  0  0  0  0  0  0  0  0  0  0  0
   -5.6116    4.3464    0.7250 H   0  0  0  0  0  0  0  0  0  0  0  0
    2.4730    1.8890   -0.8154 H   0  0  0  0  0  0  0  0  0  0  0  0
    4.6756   -1.5528    0.6278 H   0  0  0  0  0  0  0  0  0  0  0  0
    4.4512    3.2900   -0.4303 H   0  0  0  0  0  0  0  0  0  0  0  0
    6.6286   -0.1266    0.9992 H   0  0  0  0  0  0  0  0  0  0  0  0
  1 25  1  0  0  0  0
  2  7  1  0  0  0  0
  2  8  1  0  0  0  0
  3  5  1  0  0  0  0
  3 14  1  0  0  0  0
  4  6  1  0  0  0  0
  4 11  1  0  0  0  0
  4 32  1  0  0  0  0
  5 10  2  0  0  0  0
  6  7  1  0  0  0  0
  6  8  1  0  0  0  0
  6  9  1  0  0  0  0
  7 26  1  0  0  0  0
  7 27  1  0  0  0  0
  8 28  1  0  0  0  0
  8 29  1  0  0  0  0
  9 10  1  0  0  0  0
  9 30  1  0  0  0  0
  9 31  1  0  0  0  0
 10 13  1  0  0  0  0
 11 12  1  0  0  0  0
 11 33  1  0  0  0  0
 11 34  1  0  0  0  0
 12 15  2  0  0  0  0
 12 16  1  0  0  0  0
 13 14  2  0  0  0  0
 13 35  1  0  0  0  0
 14 17  1  0  0  0  0
 15 18  1  0  0  0  0
 15 36  1  0  0  0  0
 16 19  2  0  0  0  0
 16 37  1  0  0  0  0
 17 21  2  0  0  0  0
 17 22  1  0  0  0  0
 18 20  2  0  0  0  0
 18 38  1  0  0  0  0
 19 20  1  0  0  0  0
 19 39  1  0  0  0  0
 20 40  1  0  0  0  0
 21 23  1  0  0  0  0
 21 41  1  0  0  0  0
 22 24  2  0  0  0  0
 22 42  1  0  0  0  0
 23 25  2  0  0  0  0
 23 43  1  0  0  0  0
 24 25  1  0  0  0  0
 24 44  1  0  0  0  0
M  END
> <PUBCHEM_COMPOUND_CID>
56775475

> <PUBCHEM_CONFORMER_RMSD>
0.8

> <PUBCHEM_CONFORMER_DIVERSEORDER>
1
76
94
40
52
21
72
81
78
91
23
47
74
82
45
83
19
31
6
63
17
58
61
59
60
34
22
92
35
50
80
32
79
88
75
70
11
46
84
68
33
42
62
65
86
85
44
51
9
36
57
15
67
53
71
10
64
90
87
7
18
30
43
66
16
29
20
39
77
38
49
2
5
37
24
73
54
48
56
55
41
27
4
89
26
25
12
69
93
14
3
8
28
13

> <PUBCHEM_MMFF94_PARTIAL_CHARGES>
36
1 -0.19
10 0.11
11 0.41
12 -0.14
13 -0.15
14 0.09
15 -0.15
16 -0.15
17 0.05
18 -0.15
19 -0.15
2 -0.52
20 -0.15
21 -0.15
22 -0.15
23 -0.15
24 -0.15
25 0.19
3 -0.02
32 0.36
35 0.15
36 0.15
37 0.15
38 0.15
39 0.15
4 -0.84
40 0.15
41 0.15
42 0.15
43 0.15
44 0.15
5 -0.41
6 0.21
7 0.26
8 0.26
9 0.18

> <PUBCHEM_EFFECTIVE_ROTOR_COUNT>
6.8

> <PUBCHEM_PHARMACOPHORE_FEATURES>
8
1 2 acceptor
1 4 cation
1 4 donor
1 5 acceptor
4 2 6 7 8 rings
5 3 5 10 13 14 rings
6 12 15 16 18 19 20 rings
6 17 21 22 23 24 25 rings

> <PUBCHEM_HEAVY_ATOM_COUNT>
25

> <PUBCHEM_ATOM_DEF_STEREO_COUNT>
0

> <PUBCHEM_ATOM_UDEF_STEREO_COUNT>
0

> <PUBCHEM_BOND_DEF_STEREO_COUNT>
0

> <PUBCHEM_BOND_UDEF_STEREO_COUNT>
0

> <PUBCHEM_ISOTOPIC_ATOM_COUNT>
0

> <PUBCHEM_COMPONENT_COUNT>
1

> <PUBCHEM_CACTVS_TAUTO_COUNT>
1

> <PUBCHEM_CONFORMER_ID>
0362533300000001

> <PUBCHEM_MMFF94_ENERGY>
59.2938

> <PUBCHEM_FEATURE_SELFOVERLAP>
40.597

> <PUBCHEM_SHAPE_FINGERPRINT>
10050765 1 18412262809417004742
10291535 26 18410853308935362343
10675989 125 17693660320563548809
12107183 9 18190730952401040594
12390115 104 18340498849765865766
12403259 118 18338227280370821074
12633257 1 18041827429460675482
12788726 201 17827944006607648887
12925494 130 18411412929867493601
12930653 34 18408606989031026622
13103583 49 12540982820276417237
13540713 4 18270137750187838574
13965767 371 17896319112517520766
14251764 38 18337674234285339484
14251764 75 17984712117120245049
14347329 18 18343293778217002432
14429114 114 18198339546700411649
14565420 104 18120100477364085465
14849402 71 17977670801115197107
15142526 21 18120379761812263009
15338160 23 18336830908634629436
17844677 252 18337114587673250846
19246450 95 17321794514934999456
20715895 44 18268709411679215352
21302155 148 18337399321897350932
21401589 2 18411987923399264913
23559900 14 18269274556651516942
23845131 108 18043536015281402587
245318 6 18187945987509802796
2838139 119 18342452595522714598
3117164 225 18261947432823191530
3246875 12 18411421675285733697
4144715 1 18335710468253972130
474 4 18123751959494970669
5104073 3 18188194499508399210
5171179 24 17485913431213238385
5969126 39 18127121095193895679
636775 72 17910666890065482640
6376802 137 17245560236552550027
7288768 16 18260549996319328747
7808743 9 18411695482875285529
9981440 41 18411136935406189811

> <PUBCHEM_SHAPE_MULTIPOLES>
485.51
14.18
4.84
0.92
11.46
0.22
-0.04
-15.5
-2.6
-5.3
-0.94
-0.18
0.48
0.51

> <PUBCHEM_SHAPE_SELFOVERLAP>
1059.727

> <PUBCHEM_SHAPE_VOLUME>
266

> <PUBCHEM_COORDINATE_TYPE>
2
5
10

$$$$
