51137363
  -OEChem-12032416243D

 49 53  0     1  0  0  0  0  0999 V2000
    2.9338    0.1174    1.7941 F   0  0  0  0  0  0  0  0  0  0  0  0
   -2.0890    1.1384    0.2214 O   0  0  0  0  0  0  0  0  0  0  0  0
    1.1885    2.4698    0.4816 N   0  0  2  0  0  0  0  0  0  0  0  0
   -3.2932    2.6178   -0.9472 N   0  0  0  0  0  0  0  0  0  0  0  0
   -4.0450    1.4654   -0.8139 N   0  0  0  0  0  0  0  0  0  0  0  0
   -1.5913   -3.3423   -1.3874 N   0  0  0  0  0  0  0  0  0  0  0  0
   -0.9560    3.2785   -0.1457 C   0  0  1  0  0  0  0  0  0  0  0  0
   -0.6579    3.5792    1.3306 C   0  0  0  0  0  0  0  0  0  0  0  0
    0.3609    2.7102   -0.7048 C   0  0  0  0  0  0  0  0  0  0  0  0
    0.8586    3.5419    1.4184 C   0  0  0  0  0  0  0  0  0  0  0  0
    2.6088    2.4162    0.1709 C   0  0  0  0  0  0  0  0  0  0  0  0
   -2.1603    2.3816   -0.3280 C   0  0  0  0  0  0  0  0  0  0  0  0
    3.0125    1.0734   -0.3773 C   0  0  0  0  0  0  0  0  0  0  0  0
   -3.3029    0.6297   -0.1255 C   0  0  0  0  0  0  0  0  0  0  0  0
   -3.5973   -0.7407    0.3118 C   0  0  0  0  0  0  0  0  0  0  0  0
    3.1547   -0.0182    0.4791 C   0  0  0  0  0  0  0  0  0  0  0  0
    3.2444    0.9221   -1.7444 C   0  0  0  0  0  0  0  0  0  0  0  0
   -2.5957   -1.7897   -0.1594 C   0  0  0  0  0  0  0  0  0  0  0  0
   -1.4186   -2.2047    0.5239 C   0  0  0  0  0  0  0  0  0  0  0  0
   -0.8070   -3.1791   -0.2677 C   0  0  0  0  0  0  0  0  0  0  0  0
   -2.6745   -2.5069   -1.3311 C   0  0  0  0  0  0  0  0  0  0  0  0
    3.5287   -1.2613   -0.0314 C   0  0  0  0  0  0  0  0  0  0  0  0
    3.6185   -0.3210   -2.2550 C   0  0  0  0  0  0  0  0  0  0  0  0
    3.7606   -1.4127   -1.3986 C   0  0  0  0  0  0  0  0  0  0  0  0
   -0.8129   -1.8437    1.7438 C   0  0  0  0  0  0  0  0  0  0  0  0
    0.3848   -3.8131    0.1010 C   0  0  0  0  0  0  0  0  0  0  0  0
    0.3794   -2.4694    2.1256 C   0  0  0  0  0  0  0  0  0  0  0  0
    0.9673   -3.4387    1.3153 C   0  0  0  0  0  0  0  0  0  0  0  0
   -1.1704    4.2244   -0.6611 H   0  0  0  0  0  0  0  0  0  0  0  0
   -1.0572    4.5528    1.6337 H   0  0  0  0  0  0  0  0  0  0  0  0
   -1.0916    2.8224    1.9964 H   0  0  0  0  0  0  0  0  0  0  0  0
    0.2130    1.7923   -1.2840 H   0  0  0  0  0  0  0  0  0  0  0  0
    0.8139    3.4616   -1.3651 H   0  0  0  0  0  0  0  0  0  0  0  0
    1.2822    4.5039    1.1029 H   0  0  0  0  0  0  0  0  0  0  0  0
    1.1955    3.3222    2.4362 H   0  0  0  0  0  0  0  0  0  0  0  0
    2.9172    3.2268   -0.5031 H   0  0  0  0  0  0  0  0  0  0  0  0
    3.1970    2.5719    1.0866 H   0  0  0  0  0  0  0  0  0  0  0  0
   -4.5935   -1.0297   -0.0468 H   0  0  0  0  0  0  0  0  0  0  0  0
   -3.6521   -0.7670    1.4069 H   0  0  0  0  0  0  0  0  0  0  0  0
    3.1355    1.7639   -2.4229 H   0  0  0  0  0  0  0  0  0  0  0  0
   -3.4028   -2.4985   -2.1300 H   0  0  0  0  0  0  0  0  0  0  0  0
    3.6497   -2.1086    0.6362 H   0  0  0  0  0  0  0  0  0  0  0  0
    3.7988   -0.4389   -3.3195 H   0  0  0  0  0  0  0  0  0  0  0  0
   -1.3948   -3.9857   -2.1416 H   0  0  0  0  0  0  0  0  0  0  0  0
    4.0533   -2.3803   -1.7956 H   0  0  0  0  0  0  0  0  0  0  0  0
   -1.2562   -1.0885    2.3864 H   0  0  0  0  0  0  0  0  0  0  0  0
    0.8437   -4.5673   -0.5293 H   0  0  0  0  0  0  0  0  0  0  0  0
    0.8522   -2.1937    3.0645 H   0  0  0  0  0  0  0  0  0  0  0  0
    1.8929   -3.9127    1.6318 H   0  0  0  0  0  0  0  0  0  0  0  0
  1 16  1  0  0  0  0
  2 12  1  0  0  0  0
  2 14  1  0  0  0  0
  3  9  1  0  0  0  0
  3 10  1  0  0  0  0
  3 11  1  0  0  0  0
  4  5  1  0  0  0  0
  4 12  2  0  0  0  0
  5 14  2  0  0  0  0
  6 20  1  0  0  0  0
  6 21  1  0  0  0  0
  6 44  1  0  0  0  0
  7  8  1  0  0  0  0
  7  9  1  0  0  0  0
  7 12  1  0  0  0  0
  7 29  1  0  0  0  0
  8 10  1  0  0  0  0
  8 30  1  0  0  0  0
  8 31  1  0  0  0  0
  9 32  1  0  0  0  0
  9 33  1  0  0  0  0
 10 34  1  0  0  0  0
 10 35  1  0  0  0  0
 11 13  1  0  0  0  0
 11 36  1  0  0  0  0
 11 37  1  0  0  0  0
 13 16  1  0  0  0  0
 13 17  2  0  0  0  0
 14 15  1  0  0  0  0
 15 18  1  0  0  0  0
 15 38  1  0  0  0  0
 15 39  1  0  0  0  0
 16 22  2  0  0  0  0
 17 23  1  0  0  0  0
 17 40  1  0  0  0  0
 18 19  1  0  0  0  0
 18 21  2  0  0  0  0
 19 20  1  0  0  0  0
 19 25  2  0  0  0  0
 20 26  2  0  0  0  0
 21 41  1  0  0  0  0
 22 24  1  0  0  0  0
 22 42  1  0  0  0  0
 23 24  2  0  0  0  0
 23 43  1  0  0  0  0
 24 45  1  0  0  0  0
 25 27  1  0  0  0  0
 25 46  1  0  0  0  0
 26 28  1  0  0  0  0
 26 47  1  0  0  0  0
 27 28  2  0  0  0  0
 27 48  1  0  0  0  0
 28 49  1  0  0  0  0
M  END
> <PUBCHEM_COMPOUND_CID>
51137363

> <PUBCHEM_CONFORMER_RMSD>
1.4

> <PUBCHEM_CONFORMER_DIVERSEORDER>
1
62
11
10
33
30
77
51
48
70
35
39
65
53
43
56
12
46
49
28
26
71
17
19
66
64
23
21
76
75
3
14
5
8
55
24
37
16
31
60
54
18
80
42
20
61
57
50
34
25
58
52
79
74
73
44
59
15
63
78
27
47
67
69
22
40
29
7
32
6
2
38
13
41
72
9
68
45
36
4

> <PUBCHEM_MMFF94_PARTIAL_CHARGES>
36
1 -0.19
10 0.27
11 0.41
12 0.3
13 -0.14
14 0.3
15 0.36
16 0.19
17 -0.15
18 -0.18
2 -0.28
20 -0.15
21 -0.3
22 -0.15
23 -0.15
24 -0.15
25 -0.15
26 -0.15
27 -0.15
28 -0.15
3 -0.81
4 -0.34
40 0.15
41 0.15
42 0.15
43 0.15
44 0.27
45 0.15
46 0.15
47 0.15
48 0.15
49 0.15
5 -0.34
6 0.03
7 0.18
9 0.27

> <PUBCHEM_EFFECTIVE_ROTOR_COUNT>
6

> <PUBCHEM_PHARMACOPHORE_FEATURES>
8
1 3 cation
1 6 cation
1 6 donor
5 2 4 5 12 14 rings
5 3 7 8 9 10 rings
5 6 18 19 20 21 rings
6 13 16 17 22 23 24 rings
6 19 20 25 26 27 28 rings

> <PUBCHEM_HEAVY_ATOM_COUNT>
28

> <PUBCHEM_ATOM_DEF_STEREO_COUNT>
1

> <PUBCHEM_ATOM_UDEF_STEREO_COUNT>
0

> <PUBCHEM_BOND_DEF_STEREO_COUNT>
0

> <PUBCHEM_BOND_UDEF_STEREO_COUNT>
0

> <PUBCHEM_ISOTOPIC_ATOM_COUNT>
0

> <PUBCHEM_COMPONENT_COUNT>
1

> <PUBCHEM_CACTVS_TAUTO_COUNT>
1

> <PUBCHEM_CONFORMER_ID>
030C4B5300000001

> <PUBCHEM_MMFF94_ENERGY>
46.9354

> <PUBCHEM_FEATURE_SELFOVERLAP>
40.691

> <PUBCHEM_SHAPE_FINGERPRINT>
10675989 125 18264480707134058901
12038231 1 18266455593051201951
12156800 1 12771981240726627306
12553582 1 17832148590268739853
12712778 12 18336819793987053306
12788726 201 18339378387393270620
13122387 1 18410011056678167092
1361 2 16396899042663801343
14114207 22 16168259684296757643
14251757 5 18192737685511765814
14725015 67 18121767598235855227
14931854 50 18265056821055676236
15297060 5 16977855101165253650
19930381 70 17186436287970522159
20764821 26 18411702097235548252
20905425 154 17977946782822902799
21141583 151 18341337755351974120
3027735 51 17981326686231626605
3298306 158 18262792948680037933
35225 105 18336271141262147694
463206 1 17688034111205652352
474144 1 17753047207232366298
58250162 1 18266725897050091210
6287921 2 16901862320551153419

> <PUBCHEM_SHAPE_MULTIPOLES>
543.16
6.58
5.99
1.78
1.49
1.03
0.14
-0.14
-2.9
-1.92
1.13
0.9
-0.69
0.65

> <PUBCHEM_SHAPE_SELFOVERLAP>
1200.869

> <PUBCHEM_SHAPE_VOLUME>
294.9

> <PUBCHEM_COORDINATE_TYPE>
2
5
10

$$$$
