51137229
  -OEChem-12032416243D

 49 52  0     1  0  0  0  0  0999 V2000
   -2.4129    0.6111    0.1042 O   0  0  0  0  0  0  0  0  0  0  0  0
    7.3776   -0.9230    0.5451 O   0  0  0  0  0  0  0  0  0  0  0  0
    1.5888    1.1494    0.4948 N   0  0  1  0  0  0  0  0  0  0  0  0
    5.1789   -0.9680   -0.2044 N   0  0  0  0  0  0  0  0  0  0  0  0
   -2.8051    2.5692   -0.9038 N   0  0  0  0  0  0  0  0  0  0  0  0
   -3.9567    1.8087   -0.9852 N   0  0  0  0  0  0  0  0  0  0  0  0
    2.5090    0.0317    0.2992 C   0  0  0  0  0  0  0  0  0  0  0  0
    0.5071    1.1620   -0.4923 C   0  0  0  0  0  0  0  0  0  0  0  0
   -0.5024    2.1424    0.1199 C   0  0  2  0  0  0  0  0  0  0  0  0
    0.9150    1.0957    1.7922 C   0  0  0  0  0  0  0  0  0  0  0  0
   -0.2128    2.1067    1.6306 C   0  0  0  0  0  0  0  0  0  0  0  0
    3.5908    0.0438    1.3868 C   0  0  0  0  0  0  0  0  0  0  0  0
    3.1477    0.1130   -1.0934 C   0  0  0  0  0  0  0  0  0  0  0  0
    4.6188   -1.0602    1.1455 C   0  0  0  0  0  0  0  0  0  0  0  0
    4.1858   -0.9925   -1.2856 C   0  0  0  0  0  0  0  0  0  0  0  0
   -1.9314    1.8308   -0.2603 C   0  0  0  0  0  0  0  0  0  0  0  0
    6.5609   -0.9059   -0.3796 C   0  0  0  0  0  0  0  0  0  0  0  0
    7.0584   -0.8097   -1.7997 C   0  0  0  0  0  0  0  0  0  0  0  0
   -3.6817    0.6747   -0.3842 C   0  0  0  0  0  0  0  0  0  0  0  0
   -4.4966   -0.4853   -0.1665 C   0  0  0  0  0  0  0  0  0  0  0  0
   -5.8115   -0.5109   -0.6315 C   0  0  0  0  0  0  0  0  0  0  0  0
   -3.9744   -1.5875    0.5098 C   0  0  0  0  0  0  0  0  0  0  0  0
   -6.6042   -1.6391   -0.4198 C   0  0  0  0  0  0  0  0  0  0  0  0
   -4.7670   -2.7156    0.7215 C   0  0  0  0  0  0  0  0  0  0  0  0
   -6.0819   -2.7415    0.2567 C   0  0  0  0  0  0  0  0  0  0  0  0
    1.9636   -0.9208    0.3703 H   0  0  0  0  0  0  0  0  0  0  0  0
    0.0690    0.1644   -0.6278 H   0  0  0  0  0  0  0  0  0  0  0  0
    0.8346    1.5326   -1.4695 H   0  0  0  0  0  0  0  0  0  0  0  0
   -0.2799    3.1561   -0.2417 H   0  0  0  0  0  0  0  0  0  0  0  0
    1.5604    1.3889    2.6257 H   0  0  0  0  0  0  0  0  0  0  0  0
    0.4960    0.1020    1.9968 H   0  0  0  0  0  0  0  0  0  0  0  0
    0.1214    3.0991    1.9588 H   0  0  0  0  0  0  0  0  0  0  0  0
   -1.0837    1.8333    2.2358 H   0  0  0  0  0  0  0  0  0  0  0  0
    4.1030    1.0152    1.3968 H   0  0  0  0  0  0  0  0  0  0  0  0
    3.1650   -0.1132    2.3837 H   0  0  0  0  0  0  0  0  0  0  0  0
    2.4006    0.0069   -1.8875 H   0  0  0  0  0  0  0  0  0  0  0  0
    3.6342    1.0884   -1.2276 H   0  0  0  0  0  0  0  0  0  0  0  0
    4.1518   -2.0478    1.2394 H   0  0  0  0  0  0  0  0  0  0  0  0
    5.4091   -0.9993    1.9004 H   0  0  0  0  0  0  0  0  0  0  0  0
    4.6483   -0.8873   -2.2685 H   0  0  0  0  0  0  0  0  0  0  0  0
    3.7040   -1.9773   -1.2591 H   0  0  0  0  0  0  0  0  0  0  0  0
    8.1517   -0.7594   -1.7997 H   0  0  0  0  0  0  0  0  0  0  0  0
    6.7583   -1.6951   -2.3665 H   0  0  0  0  0  0  0  0  0  0  0  0
    6.6761    0.0982   -2.2736 H   0  0  0  0  0  0  0  0  0  0  0  0
   -6.2395    0.3367   -1.1613 H   0  0  0  0  0  0  0  0  0  0  0  0
   -2.9549   -1.6052    0.8868 H   0  0  0  0  0  0  0  0  0  0  0  0
   -7.6280   -1.6594   -0.7817 H   0  0  0  0  0  0  0  0  0  0  0  0
   -4.3607   -3.5743    1.2482 H   0  0  0  0  0  0  0  0  0  0  0  0
   -6.6990   -3.6199    0.4215 H   0  0  0  0  0  0  0  0  0  0  0  0
  1 16  1  0  0  0  0
  1 19  1  0  0  0  0
  2 17  2  0  0  0  0
  3  7  1  0  0  0  0
  3  8  1  0  0  0  0
  3 10  1  0  0  0  0
  4 14  1  0  0  0  0
  4 15  1  0  0  0  0
  4 17  1  0  0  0  0
  5  6  1  0  0  0  0
  5 16  2  0  0  0  0
  6 19  2  0  0  0  0
  7 12  1  0  0  0  0
  7 13  1  0  0  0  0
  7 26  1  0  0  0  0
  8  9  1  0  0  0  0
  8 27  1  0  0  0  0
  8 28  1  0  0  0  0
  9 11  1  0  0  0  0
  9 16  1  0  0  0  0
  9 29  1  0  0  0  0
 10 11  1  0  0  0  0
 10 30  1  0  0  0  0
 10 31  1  0  0  0  0
 11 32  1  0  0  0  0
 11 33  1  0  0  0  0
 12 14  1  0  0  0  0
 12 34  1  0  0  0  0
 12 35  1  0  0  0  0
 13 15  1  0  0  0  0
 13 36  1  0  0  0  0
 13 37  1  0  0  0  0
 14 38  1  0  0  0  0
 14 39  1  0  0  0  0
 15 40  1  0  0  0  0
 15 41  1  0  0  0  0
 17 18  1  0  0  0  0
 18 42  1  0  0  0  0
 18 43  1  0  0  0  0
 18 44  1  0  0  0  0
 19 20  1  0  0  0  0
 20 21  2  0  0  0  0
 20 22  1  0  0  0  0
 21 23  1  0  0  0  0
 21 45  1  0  0  0  0
 22 24  2  0  0  0  0
 22 46  1  0  0  0  0
 23 25  2  0  0  0  0
 23 47  1  0  0  0  0
 24 25  1  0  0  0  0
 24 48  1  0  0  0  0
 25 49  1  0  0  0  0
M  END
> <PUBCHEM_COMPOUND_CID>
51137229

> <PUBCHEM_CONFORMER_RMSD>
0.8

> <PUBCHEM_CONFORMER_DIVERSEORDER>
1
29
65
70
10
26
42
72
20
5
59
39
64
15
16
27
75
58
52
33
40
73
56
32
30
45
76
54
63
2
62
61
51
13
74
55
9
38
23
34
28
7
14
57
31
6
24
68
60
35
36
47
12
11
43
67
21
71
17
37
69
8
4
48
53
66
22
3
46
41
19
50
18
44
49
25

> <PUBCHEM_MMFF94_PARTIAL_CHARGES>
27
1 -0.28
10 0.27
14 0.3
15 0.3
16 0.3
17 0.57
18 0.06
19 0.43
2 -0.57
20 0.05
21 -0.15
22 -0.15
23 -0.15
24 -0.15
25 -0.15
3 -0.81
4 -0.66
45 0.15
46 0.15
47 0.15
48 0.15
49 0.15
5 -0.34
6 -0.34
7 0.27
8 0.27
9 0.18

> <PUBCHEM_EFFECTIVE_ROTOR_COUNT>
6.2

> <PUBCHEM_PHARMACOPHORE_FEATURES>
6
1 2 acceptor
1 3 cation
5 1 5 6 16 19 rings
5 3 8 9 10 11 rings
6 20 21 22 23 24 25 rings
6 4 7 12 13 14 15 rings

> <PUBCHEM_HEAVY_ATOM_COUNT>
25

> <PUBCHEM_ATOM_DEF_STEREO_COUNT>
1

> <PUBCHEM_ATOM_UDEF_STEREO_COUNT>
0

> <PUBCHEM_BOND_DEF_STEREO_COUNT>
0

> <PUBCHEM_BOND_UDEF_STEREO_COUNT>
0

> <PUBCHEM_ISOTOPIC_ATOM_COUNT>
0

> <PUBCHEM_COMPONENT_COUNT>
1

> <PUBCHEM_CACTVS_TAUTO_COUNT>
1

> <PUBCHEM_CONFORMER_ID>
030C4ACD00000001

> <PUBCHEM_MMFF94_ENERGY>
44.3633

> <PUBCHEM_FEATURE_SELFOVERLAP>
30.448

> <PUBCHEM_SHAPE_FINGERPRINT>
10 15 11240002274090413903
10076449 9 17704082798332184846
10577160 103 17750809933489037012
10674148 151 18334012783766949185
10917259 69 18341889638562381989
10981352 41 18059005228681974703
117089 54 17899145077231202035
11796584 16 18338231553209263212
11809386 21 18187358797129285459
12633257 1 16271922761592329013
12643181 29 18408880729393473255
12760667 363 18342175588113831755
13103583 49 14405177378662594380
13257819 101 11241967083598472017
13402501 40 18342739637189127463
13540713 4 18268126799840857705
1361 4 18337953373195843642
13631057 29 18409448064033600810
13673619 4 18342740736700430569
13690498 29 18040713667390069453
13757389 114 18042680599483228645
14123256 34 18342742935454679987
14211702 104 18199191685813508054
14251751 18 18410292523064923638
14251764 30 18273496783927171895
14420673 8 18336830888156935435
14849402 71 13973380505925584674
14931854 50 17822001008936987531
14950920 106 15267052696778699843
15142383 8 8358258134496567478
15183329 4 17313100860565889899
15461852 350 18261116237030114582
15510800 12 18272373100756561775
17138139 8 17967525813563149826
17780758 139 17775007873602058617
18335252 98 18131353008464847734
18643901 69 18409172095600550647
193927 3 18201725054396286705
20403669 9 18411981390754156623
20621476 21 18272653458550865927
21054139 6 18040153994560050274
21196832 93 18115597087647098538
21267235 1 18260830441089574331
21307412 95 18335411431583269199
21344244 246 18190470535770730132
21585481 104 16081917149682373095
21623969 137 17561084696352288062
21781051 124 17989212504681615238
23379529 103 18190183584430628883
23559900 14 18262793112142132493
270888 7 9295023353489879731
2747138 104 17632859716244508984
2838139 119 8286195024544582563
3004659 81 17968092057729644727
3089732 80 18341895212116499095
329604 57 18410579504458843772
335352 9 18334006187087267133
393628 179 10881678074164897031
4107672 100 17822004273670847317
437815 12 18202563999475403689
439807 62 18333452053873821267
484985 159 18272093760694452385
5104073 3 16485564301137030586
58902169 19 17167866331314523782
59682541 35 18059845187452228506
6009941 240 17631739253429127681
636775 8 18202294576599321942
6376802 90 17907581329017949652
7918774 8 17917440816891782622
7970288 3 18262232361048754883
8217 86 18410295830453557176
86090 222 17560819718155642614
8863177 126 18271802483811405699
9862886 166 18408887334668136986
9980921 52 17408525500085501855
999808 66 17846501413505553630

> <PUBCHEM_SHAPE_MULTIPOLES>
482.83
19.17
2.71
1.41
10.79
0.19
0.17
-16.75
-4.12
-4.17
0.25
1.56
0.19
1.6

> <PUBCHEM_SHAPE_SELFOVERLAP>
1032.945

> <PUBCHEM_SHAPE_VOLUME>
268

> <PUBCHEM_COORDINATE_TYPE>
2
5
10

$$$$
