26762949
  -OEChem-12032416283D

 61 64  0     1  0  0  0  0  0999 V2000
    2.7084   -2.6861   -2.7028 O   0  0  0  0  0  0  0  0  0  0  0  0
    2.6625    2.0934    2.4660 O   0  0  0  0  0  0  0  0  0  0  0  0
   -3.1591   -2.2436    0.9782 O   0  0  0  0  0  0  0  0  0  0  0  0
    1.6044   -2.1764    0.5099 N   0  0  2  0  0  0  0  0  0  0  0  0
    3.9448   -2.1333   -0.8303 N   0  0  0  0  0  0  0  0  0  0  0  0
   -1.3493   -1.8218   -0.3975 N   0  0  0  0  0  0  0  0  0  0  0  0
    2.7589    2.9224    0.2976 N   0  0  0  0  0  0  0  0  0  0  0  0
   -3.1635   -0.4159   -0.4950 N   0  0  0  0  0  0  0  0  0  0  0  0
    1.8064   -3.2020   -0.5116 C   0  0  1  0  0  0  0  0  0  0  0  0
    2.7733   -1.9643    1.3679 C   0  0  1  0  0  0  0  0  0  0  0  0
   -0.5413   -2.9359    0.0400 C   0  0  1  0  0  0  0  0  0  0  0  0
    0.4047   -3.4095   -1.0734 C   0  0  0  0  0  0  0  0  0  0  0  0
    0.3736   -2.5457    1.2018 C   0  0  0  0  0  0  0  0  0  0  0  0
    4.0890   -2.2537    0.6102 C   0  0  0  0  0  0  0  0  0  0  0  0
    2.7574   -0.5168    1.8667 C   0  0  0  0  0  0  0  0  0  0  0  0
    2.8320   -2.6475   -1.4825 C   0  0  0  0  0  0  0  0  0  0  0  0
    2.7936    0.4898    0.7267 C   0  0  0  0  0  0  0  0  0  0  0  0
    2.7328    1.9031    1.2491 C   0  0  0  0  0  0  0  0  0  0  0  0
   -2.6244   -1.5524    0.1144 C   0  0  0  0  0  0  0  0  0  0  0  0
    2.7012    4.3215    0.7265 C   0  0  0  0  0  0  0  0  0  0  0  0
    2.8866    2.7284   -1.1522 C   0  0  0  0  0  0  0  0  0  0  0  0
    1.5690    5.0624    0.0203 C   0  0  0  0  0  0  0  0  0  0  0  0
    1.7581    3.4402   -1.8955 C   0  0  0  0  0  0  0  0  0  0  0  0
    1.6721    4.9126   -1.4966 C   0  0  0  0  0  0  0  0  0  0  0  0
   -4.4231    0.1818   -0.2569 C   0  0  0  0  0  0  0  0  0  0  0  0
   -4.7978    1.3232   -0.9658 C   0  0  0  0  0  0  0  0  0  0  0  0
   -5.2906   -0.3695    0.6859 C   0  0  0  0  0  0  0  0  0  0  0  0
   -6.0399    1.9133   -0.7319 C   0  0  0  0  0  0  0  0  0  0  0  0
   -6.5327    0.2204    0.9198 C   0  0  0  0  0  0  0  0  0  0  0  0
   -6.9073    1.3619    0.2110 C   0  0  0  0  0  0  0  0  0  0  0  0
    2.1784   -4.1436   -0.0855 H   0  0  0  0  0  0  0  0  0  0  0  0
    2.7486   -2.6276    2.2427 H   0  0  0  0  0  0  0  0  0  0  0  0
   -1.2113   -3.7482    0.3445 H   0  0  0  0  0  0  0  0  0  0  0  0
    0.2371   -2.8680   -2.0116 H   0  0  0  0  0  0  0  0  0  0  0  0
    0.2416   -4.4738   -1.2802 H   0  0  0  0  0  0  0  0  0  0  0  0
   -0.0308   -1.7249    1.8025 H   0  0  0  0  0  0  0  0  0  0  0  0
    0.5366   -3.4133    1.8537 H   0  0  0  0  0  0  0  0  0  0  0  0
    4.9144   -1.6091    0.9291 H   0  0  0  0  0  0  0  0  0  0  0  0
    4.3920   -3.2920    0.7943 H   0  0  0  0  0  0  0  0  0  0  0  0
    3.6151   -0.3554    2.5333 H   0  0  0  0  0  0  0  0  0  0  0  0
    1.8646   -0.3515    2.4843 H   0  0  0  0  0  0  0  0  0  0  0  0
    4.7135   -1.7614   -1.3795 H   0  0  0  0  0  0  0  0  0  0  0  0
   -0.9418   -1.1537   -1.0448 H   0  0  0  0  0  0  0  0  0  0  0  0
    3.7242    0.3894    0.1598 H   0  0  0  0  0  0  0  0  0  0  0  0
    1.9401    0.3457    0.0560 H   0  0  0  0  0  0  0  0  0  0  0  0
    3.6683    4.7778    0.4839 H   0  0  0  0  0  0  0  0  0  0  0  0
    2.5686    4.3924    1.8106 H   0  0  0  0  0  0  0  0  0  0  0  0
    2.8912    1.6735   -1.4308 H   0  0  0  0  0  0  0  0  0  0  0  0
    3.8576    3.1435   -1.4478 H   0  0  0  0  0  0  0  0  0  0  0  0
    1.5901    6.1232    0.2926 H   0  0  0  0  0  0  0  0  0  0  0  0
    0.6053    4.6594    0.3561 H   0  0  0  0  0  0  0  0  0  0  0  0
    0.8047    2.9491   -1.6642 H   0  0  0  0  0  0  0  0  0  0  0  0
    1.9129    3.3562   -2.9767 H   0  0  0  0  0  0  0  0  0  0  0  0
    0.8041    5.3780   -1.9764 H   0  0  0  0  0  0  0  0  0  0  0  0
    2.5625    5.4421   -1.8571 H   0  0  0  0  0  0  0  0  0  0  0  0
   -2.5875    0.0424   -1.1966 H   0  0  0  0  0  0  0  0  0  0  0  0
   -4.1313    1.7631   -1.7033 H   0  0  0  0  0  0  0  0  0  0  0  0
   -5.0722   -1.2500    1.2734 H   0  0  0  0  0  0  0  0  0  0  0  0
   -6.3316    2.8021   -1.2838 H   0  0  0  0  0  0  0  0  0  0  0  0
   -7.2093   -0.2079    1.6539 H   0  0  0  0  0  0  0  0  0  0  0  0
   -7.8744    1.8213    0.3933 H   0  0  0  0  0  0  0  0  0  0  0  0
  1 16  2  0  0  0  0
  2 18  2  0  0  0  0
  3 19  2  0  0  0  0
  4  9  1  0  0  0  0
  4 10  1  0  0  0  0
  4 13  1  0  0  0  0
  5 14  1  0  0  0  0
  5 16  1  0  0  0  0
  5 42  1  0  0  0  0
  6 11  1  0  0  0  0
  6 19  1  0  0  0  0
  6 43  1  0  0  0  0
  7 18  1  0  0  0  0
  7 20  1  0  0  0  0
  7 21  1  0  0  0  0
  8 19  1  0  0  0  0
  8 25  1  0  0  0  0
  8 56  1  0  0  0  0
  9 12  1  0  0  0  0
  9 16  1  0  0  0  0
  9 31  1  0  0  0  0
 10 14  1  0  0  0  0
 10 15  1  0  0  0  0
 10 32  1  0  0  0  0
 11 12  1  0  0  0  0
 11 13  1  0  0  0  0
 11 33  1  0  0  0  0
 12 34  1  0  0  0  0
 12 35  1  0  0  0  0
 13 36  1  0  0  0  0
 13 37  1  0  0  0  0
 14 38  1  0  0  0  0
 14 39  1  0  0  0  0
 15 17  1  0  0  0  0
 15 40  1  0  0  0  0
 15 41  1  0  0  0  0
 17 18  1  0  0  0  0
 17 44  1  0  0  0  0
 17 45  1  0  0  0  0
 20 22  1  0  0  0  0
 20 46  1  0  0  0  0
 20 47  1  0  0  0  0
 21 23  1  0  0  0  0
 21 48  1  0  0  0  0
 21 49  1  0  0  0  0
 22 24  1  0  0  0  0
 22 50  1  0  0  0  0
 22 51  1  0  0  0  0
 23 24  1  0  0  0  0
 23 52  1  0  0  0  0
 23 53  1  0  0  0  0
 24 54  1  0  0  0  0
 24 55  1  0  0  0  0
 25 26  2  0  0  0  0
 25 27  1  0  0  0  0
 26 28  1  0  0  0  0
 26 57  1  0  0  0  0
 27 29  2  0  0  0  0
 27 58  1  0  0  0  0
 28 30  2  0  0  0  0
 28 59  1  0  0  0  0
 29 30  1  0  0  0  0
 29 60  1  0  0  0  0
 30 61  1  0  0  0  0
M  END
> <PUBCHEM_COMPOUND_CID>
26762949

> <PUBCHEM_CONFORMER_RMSD>
1

> <PUBCHEM_CONFORMER_DIVERSEORDER>
2
172
208
15
81
164
48
17
95
23
230
4
62
106
233
115
219
201
187
170
11
212
101
133
109
129
120
168
8
91
98
157
186
119
111
30
35
228
49
90
229
207
69
197
223
141
43
213
210
150
134
63
160
205
211
200
10
135
71
78
221
80
73
16
88
222
226
113
217
145
146
182
220
42
214
107
25
114
194
50
236
231
82
178
51
238
21
189
196
65
139
225
175
167
61
152
56
185
177
32
83
188
192
110
102
181
180
174
67
124
75
184
147
227
140
155
132
54
28
127
131
179
206
117
45
9
202
99
24
57
198
138
153
165
169
163
105
6
26
232
3
60
199
237
162
142
46
85
41
176
47
203
118
159
29
77
74
52
191
158
171
58
209
239
100
116
94
148
125
79
64
144
218
216
84
122
66
103
59
183
70
143
97
190
234
92
126
72
136
96
76
55
215
154
195
20
166
128
151
193
89
22
27
39
130
53
19
86
44
235
173
204
137
108
33
123
224
13
87
38
36
149
121
40
12
161
5
31
14
7
68
34
156
1
18
93
112
37
104

> <PUBCHEM_MMFF94_PARTIAL_CHARGES>
33
1 -0.57
10 0.27
11 0.3
13 0.27
14 0.3
16 0.57
17 0.06
18 0.57
19 0.69
2 -0.57
20 0.3
21 0.3
25 0.12
26 -0.15
27 -0.15
28 -0.15
29 -0.15
3 -0.57
30 -0.15
4 -0.81
42 0.37
43 0.37
5 -0.73
56 0.37
57 0.15
58 0.15
59 0.15
6 -0.73
60 0.15
61 0.15
7 -0.66
8 -0.55
9 0.33

> <PUBCHEM_EFFECTIVE_ROTOR_COUNT>
10.4

> <PUBCHEM_PHARMACOPHORE_FEATURES>
11
1 1 acceptor
1 2 acceptor
1 3 acceptor
1 4 cation
1 5 donor
1 6 donor
1 8 donor
5 4 9 11 12 13 rings
6 25 26 27 28 29 30 rings
6 4 5 9 10 14 16 rings
6 7 20 21 22 23 24 rings

> <PUBCHEM_HEAVY_ATOM_COUNT>
30

> <PUBCHEM_ATOM_DEF_STEREO_COUNT>
3

> <PUBCHEM_ATOM_UDEF_STEREO_COUNT>
0

> <PUBCHEM_BOND_DEF_STEREO_COUNT>
0

> <PUBCHEM_BOND_UDEF_STEREO_COUNT>
0

> <PUBCHEM_ISOTOPIC_ATOM_COUNT>
0

> <PUBCHEM_COMPONENT_COUNT>
1

> <PUBCHEM_CACTVS_TAUTO_COUNT>
9

> <PUBCHEM_CONFORMER_ID>
01985EC500000002

> <PUBCHEM_MMFF94_ENERGY>
66.6117

> <PUBCHEM_FEATURE_SELFOVERLAP>
55.967

> <PUBCHEM_SHAPE_FINGERPRINT>
10483366 6 18337689567988369868
10763959 59 18268993094675116083
10937287 8 17977101593388702488
11059048 146 17976540834032671701
11297750 10 17626660506695648266
12539745 222 17247227809968060434
13761468 95 17256841273208836856
14251764 38 18336821013441487767
151778 21 18336824311876248377
15210252 30 18265064543855448598
15475509 84 17467331340943053050
16988056 13 18340489967351725412
16992727 255 18044107976087481988
21857420 4 18196660592470119396
21860390 5 18343297046397009742
21987440 362 18192432090010173380
23559900 14 18411985737155344351
24180151 248 17476948091005728710
245318 6 18116154561707017581
394071 54 18411981322166535865
4066623 53 18055367842569964302
50150288 127 13561373960436918012
53794403 172 18409731798379399893
54076057 255 18115603555556181398
54728670 133 17617055198799961122
5776283 40 17974313181042252564
6201320 77 16012638025923147112
6609424 69 18264479594874225285

> <PUBCHEM_SHAPE_MULTIPOLES>
574.87
12.53
7.13
1.84
30.67
7.78
0.23
3.76
-1.31
-9.26
2.18
-2.03
0.07
1.21

> <PUBCHEM_SHAPE_SELFOVERLAP>
1209.281

> <PUBCHEM_SHAPE_VOLUME>
319.8

> <PUBCHEM_COORDINATE_TYPE>
2
5
10

$$$$
