40776885
  -OEChem-12032416183D

 59 62  0     1  0  0  0  0  0999 V2000
   -7.4902   -2.1817    1.7076 F   0  0  0  0  0  0  0  0  0  0  0  0
    4.0080   -0.0366    0.4979 O   0  0  0  0  0  0  0  0  0  0  0  0
    3.9461   -1.9639    1.7454 O   0  0  0  0  0  0  0  0  0  0  0  0
    1.6577    2.6247    1.6056 N   0  0  2  0  0  0  0  0  0  0  0  0
   -0.6479    0.8283   -1.8985 N   0  0  0  0  0  0  0  0  0  0  0  0
   -2.5488   -0.6513   -1.8284 N   0  0  0  0  0  0  0  0  0  0  0  0
    5.4300   -1.7148   -0.0207 N   0  0  0  0  0  0  0  0  0  0  0  0
    1.0654    2.9056   -0.9150 C   0  0  2  0  0  0  0  0  0  0  0  0
   -0.1789    2.4332   -0.1134 C   0  0  2  0  0  0  0  0  0  0  0  0
    2.6606    1.9180    0.7660 C   0  0  2  0  0  0  0  0  0  0  0  0
    2.2158    1.8971   -0.7122 C   0  0  0  0  0  0  0  0  0  0  0  0
    1.5179    4.2418   -0.2881 C   0  0  0  0  0  0  0  0  0  0  0  0
    0.2989    2.0959    1.3279 C   0  0  0  0  0  0  0  0  0  0  0  0
    1.6814    4.0591    1.2310 C   0  0  0  0  0  0  0  0  0  0  0  0
    2.9717    0.5136    1.2878 C   0  0  0  0  0  0  0  0  0  0  0  0
   -1.0409    1.3292   -0.7091 C   0  0  0  0  0  0  0  0  0  0  0  0
   -2.1605    0.8978   -0.0276 C   0  0  0  0  0  0  0  0  0  0  0  0
   -2.8836   -0.1048   -0.6412 C   0  0  0  0  0  0  0  0  0  0  0  0
   -1.4362   -0.1450   -2.3934 C   0  0  0  0  0  0  0  0  0  0  0  0
    4.4211   -1.3055    0.8257 C   0  0  0  0  0  0  0  0  0  0  0  0
   -4.0765   -0.6431   -0.0323 C   0  0  0  0  0  0  0  0  0  0  0  0
   -1.0350   -0.7227   -3.7084 C   0  0  0  0  0  0  0  0  0  0  0  0
    6.0762   -3.0040    0.0660 C   0  0  0  0  0  0  0  0  0  0  0  0
   -4.0083   -1.2458    1.2238 C   0  0  0  0  0  0  0  0  0  0  0  0
   -5.2980   -0.5602   -0.7006 C   0  0  0  0  0  0  0  0  0  0  0  0
    5.3201   -4.0377   -0.7591 C   0  0  0  0  0  0  0  0  0  0  0  0
    7.5294   -2.8987   -0.3783 C   0  0  0  0  0  0  0  0  0  0  0  0
   -5.1614   -1.7656    1.8116 C   0  0  0  0  0  0  0  0  0  0  0  0
   -6.4513   -1.0801   -0.1129 C   0  0  0  0  0  0  0  0  0  0  0  0
   -6.3829   -1.6828    1.1431 C   0  0  0  0  0  0  0  0  0  0  0  0
    0.8430    3.0386   -1.9790 H   0  0  0  0  0  0  0  0  0  0  0  0
   -0.8526    3.3018   -0.0487 H   0  0  0  0  0  0  0  0  0  0  0  0
    3.6082    2.4745    0.8185 H   0  0  0  0  0  0  0  0  0  0  0  0
    1.8962    0.8959   -1.0225 H   0  0  0  0  0  0  0  0  0  0  0  0
    3.0636    2.1732   -1.3515 H   0  0  0  0  0  0  0  0  0  0  0  0
    0.7820    5.0285   -0.4911 H   0  0  0  0  0  0  0  0  0  0  0  0
    2.4669    4.5613   -0.7356 H   0  0  0  0  0  0  0  0  0  0  0  0
   -0.4038    2.5322    2.0506 H   0  0  0  0  0  0  0  0  0  0  0  0
    0.2705    1.0183    1.5260 H   0  0  0  0  0  0  0  0  0  0  0  0
    2.6216    4.5171    1.5621 H   0  0  0  0  0  0  0  0  0  0  0  0
    0.8883    4.5964    1.7664 H   0  0  0  0  0  0  0  0  0  0  0  0
    2.0942   -0.1398    1.2296 H   0  0  0  0  0  0  0  0  0  0  0  0
    3.3012    0.5698    2.3326 H   0  0  0  0  0  0  0  0  0  0  0  0
   -2.4563    1.3287    0.9217 H   0  0  0  0  0  0  0  0  0  0  0  0
   -1.5084   -0.1602   -4.5185 H   0  0  0  0  0  0  0  0  0  0  0  0
    0.0510   -0.6776   -3.8375 H   0  0  0  0  0  0  0  0  0  0  0  0
   -1.3420   -1.7707   -3.7824 H   0  0  0  0  0  0  0  0  0  0  0  0
    5.6986   -1.0876   -0.7732 H   0  0  0  0  0  0  0  0  0  0  0  0
    6.0565   -3.3221    1.1155 H   0  0  0  0  0  0  0  0  0  0  0  0
   -3.0652   -1.3255    1.7594 H   0  0  0  0  0  0  0  0  0  0  0  0
   -5.3720   -0.0908   -1.6788 H   0  0  0  0  0  0  0  0  0  0  0  0
    5.2899   -3.7553   -1.8175 H   0  0  0  0  0  0  0  0  0  0  0  0
    4.2845   -4.1323   -0.4148 H   0  0  0  0  0  0  0  0  0  0  0  0
    5.7926   -5.0224   -0.6816 H   0  0  0  0  0  0  0  0  0  0  0  0
    7.6045   -2.5755   -1.4227 H   0  0  0  0  0  0  0  0  0  0  0  0
    8.0698   -2.1672    0.2324 H   0  0  0  0  0  0  0  0  0  0  0  0
    8.0392   -3.8629   -0.2822 H   0  0  0  0  0  0  0  0  0  0  0  0
   -5.1087   -2.2360    2.7890 H   0  0  0  0  0  0  0  0  0  0  0  0
   -7.4027   -1.0151   -0.6324 H   0  0  0  0  0  0  0  0  0  0  0  0
  1 30  1  0  0  0  0
  2 15  1  0  0  0  0
  2 20  1  0  0  0  0
  3 20  2  0  0  0  0
  4 10  1  0  0  0  0
  4 13  1  0  0  0  0
  4 14  1  0  0  0  0
  5 16  2  0  0  0  0
  5 19  1  0  0  0  0
  6 18  1  0  0  0  0
  6 19  2  0  0  0  0
  7 20  1  0  0  0  0
  7 23  1  0  0  0  0
  7 48  1  0  0  0  0
  8  9  1  0  0  0  0
  8 11  1  0  0  0  0
  8 12  1  0  0  0  0
  8 31  1  0  0  0  0
  9 13  1  0  0  0  0
  9 16  1  0  0  0  0
  9 32  1  0  0  0  0
 10 11  1  0  0  0  0
 10 15  1  0  0  0  0
 10 33  1  0  0  0  0
 11 34  1  0  0  0  0
 11 35  1  0  0  0  0
 12 14  1  0  0  0  0
 12 36  1  0  0  0  0
 12 37  1  0  0  0  0
 13 38  1  0  0  0  0
 13 39  1  0  0  0  0
 14 40  1  0  0  0  0
 14 41  1  0  0  0  0
 15 42  1  0  0  0  0
 15 43  1  0  0  0  0
 16 17  1  0  0  0  0
 17 18  2  0  0  0  0
 17 44  1  0  0  0  0
 18 21  1  0  0  0  0
 19 22  1  0  0  0  0
 21 24  2  0  0  0  0
 21 25  1  0  0  0  0
 22 45  1  0  0  0  0
 22 46  1  0  0  0  0
 22 47  1  0  0  0  0
 23 26  1  0  0  0  0
 23 27  1  0  0  0  0
 23 49  1  0  0  0  0
 24 28  1  0  0  0  0
 24 50  1  0  0  0  0
 25 29  2  0  0  0  0
 25 51  1  0  0  0  0
 26 52  1  0  0  0  0
 26 53  1  0  0  0  0
 26 54  1  0  0  0  0
 27 55  1  0  0  0  0
 27 56  1  0  0  0  0
 27 57  1  0  0  0  0
 28 30  2  0  0  0  0
 28 58  1  0  0  0  0
 29 30  1  0  0  0  0
 29 59  1  0  0  0  0
M  END
> <PUBCHEM_COMPOUND_CID>
40776885

> <PUBCHEM_CONFORMER_RMSD>
1

> <PUBCHEM_CONFORMER_DIVERSEORDER>
1
58
122
64
53
95
22
9
76
44
112
59
60
74
38
93
50
20
105
100
107
61
87
26
13
81
21
114
115
25
96
111
86
29
75
109
62
6
40
117
92
116
98
99
17
68
19
33
34
35
41
79
69
7
82
56
108
11
90
2
12
43
70
119
48
120
66
36
118
32
39
8
18
110
85
24
42
104
77
55
91
54
14
31
46
47
97
63
57
10
16
27
15
80
102
94
30
65
28
49
106
84
113
45
51
37
4
23
5
103
78
89
71
52
88
3
72
121
73
101
83
67

> <PUBCHEM_MMFF94_PARTIAL_CHARGES>
30
1 -0.19
10 0.27
13 0.27
14 0.27
15 0.28
16 0.17
17 -0.15
18 0.31
19 0.48
2 -0.43
20 0.78
22 0.14
23 0.3
24 -0.15
25 -0.15
28 -0.15
29 -0.15
3 -0.57
30 0.19
4 -0.81
44 0.15
48 0.37
5 -0.62
50 0.15
51 0.15
58 0.15
59 0.15
6 -0.62
7 -0.73
9 0.14

> <PUBCHEM_EFFECTIVE_ROTOR_COUNT>
8.2

> <PUBCHEM_PHARMACOPHORE_FEATURES>
9
1 3 acceptor
1 4 cation
1 5 acceptor
1 7 donor
3 23 26 27 hydrophobe
3 5 6 19 cation
6 21 24 25 28 29 30 rings
6 5 6 16 17 18 19 rings
8 4 8 9 10 11 12 13 14 rings

> <PUBCHEM_HEAVY_ATOM_COUNT>
30

> <PUBCHEM_ATOM_DEF_STEREO_COUNT>
3

> <PUBCHEM_ATOM_UDEF_STEREO_COUNT>
0

> <PUBCHEM_BOND_DEF_STEREO_COUNT>
0

> <PUBCHEM_BOND_UDEF_STEREO_COUNT>
0

> <PUBCHEM_ISOTOPIC_ATOM_COUNT>
0

> <PUBCHEM_COMPONENT_COUNT>
1

> <PUBCHEM_CACTVS_TAUTO_COUNT>
2

> <PUBCHEM_CONFORMER_ID>
026E34B500000001

> <PUBCHEM_MMFF94_ENERGY>
76.5924

> <PUBCHEM_FEATURE_SELFOVERLAP>
45.671

> <PUBCHEM_SHAPE_FINGERPRINT>
10319688 140 18337114574640759716
10369192 42 17100583044256313204
10692045 39 15554459469721981214
10883706 89 18340780260893125857
10928967 22 18057584513841165726
11135609 127 9870927710044333195
11135926 11 18194947760029991028
11211813 15 11026098870981201254
11513181 2 17755591786139984379
11607047 141 17969239961571843213
117089 54 18339371747142482366
11756154 5 18336540530887501226
12107183 9 18270971137705816561
12342043 65 18186801417880400037
12422481 6 17703791366724385695
12623949 98 17751082629198783787
12633257 1 16128361693222810048
13103583 49 16415181387614070478
131258 43 17241066390932324349
13150687 139 12035729778678347568
13533116 47 18265054807296464105
1361 87 17677061221473496051
13673619 4 18040154015464979379
13782708 43 18041836329129181139
13947930 73 18261113006129031650
13955234 65 18194680607846364992
14251764 30 18410012113583539474
14289278 72 16343712044912899454
15475509 35 18262523722596341547
15510800 12 18335412448957437218
15537594 2 18201713007556347236
15664445 248 15430596298050740557
16728300 4 18131071498505854395
17492 54 13406797722323497812
19246450 95 17773603715617322571
19304144 158 9943805569710362203
19319366 153 17840026573923842569
20505436 4 17556024928108761844
20775530 9 18268131107681635458
21130935 74 18193847170655490131
212916 134 15697729215509003621
21344244 246 18114473323288282372
21365058 113 18259708903936048988
21365058 27 17614570667246072300
21421861 104 17917150618984855672
21682296 61 18409729565218263819
21716022 299 18188227458945770844
22440779 20 17604436180593579237
23559900 14 17822008765921659109
239999 70 17024580320908993153
2838139 119 10087643667527940184
3388396 114 12468633877417379750
345986 75 17988928885471576121
3737641 26 18271793615569005408
3862424 121 16516834587592752603
393628 179 11314604155374101998
437815 12 18407761421538867202
4408954 87 16465035769757597554
46194498 28 17385998529185831612
474113 269 18201428195807006663
5309563 4 18337667521130045674
5372103 7 9439400211757745882
54039377 194 18342742867632288318
56633871 153 18060127726484056886
57816373 69 18336545036165535871
58260988 114 18055076450539731218
613672 6 18193527048976908936
6823239 73 17095513041610582185
7970288 3 18410854322432008906
86090 222 17749105634130140171

> <PUBCHEM_SHAPE_MULTIPOLES>
578.45
16.4
4.96
2.26
2.1
2.38
1.66
-25.67
-6.01
-8.53
-0.92
1.8
-0.52
2.26

> <PUBCHEM_SHAPE_SELFOVERLAP>
1236.03

> <PUBCHEM_SHAPE_VOLUME>
321.8

> <PUBCHEM_COORDINATE_TYPE>
2
5
10

$$$$
