7144237
  -OEChem-12032416403D

 62 66  0     1  0  0  0  0  0999 V2000
   -1.6528   -2.7596   -1.5460 S   0  0  0  0  0  0  0  0  0  0  0  0
    3.7858    4.1967   -1.9913 S   0  0  0  0  0  0  0  0  0  0  0  0
   -1.3303   -2.8703   -2.9531 O   0  0  0  0  0  0  0  0  0  0  0  0
   -2.4627   -3.7624   -0.8868 O   0  0  0  0  0  0  0  0  0  0  0  0
   -3.8846    0.1919    3.2400 O   0  0  0  0  0  0  0  0  0  0  0  0
    5.0961   -2.5923   -0.2083 O   0  0  0  0  0  0  0  0  0  0  0  0
   -2.3243   -1.2151   -1.2451 N   0  0  2  0  0  0  0  0  0  0  0  0
   -3.0087    0.7301    1.1352 N   0  0  0  0  0  0  0  0  0  0  0  0
    3.4458   -2.2778    1.4457 N   0  0  0  0  0  0  0  0  0  0  0  0
   -4.3147    0.2652   -1.0221 C   0  0  1  0  0  0  0  0  0  0  0  0
   -2.0725    1.2582   -1.1375 C   0  0  2  0  0  0  0  0  0  0  0  0
   -3.5227    1.4358   -1.5806 C   0  0  0  0  0  0  0  0  0  0  0  0
   -3.7728   -1.0682   -1.5598 C   0  0  0  0  0  0  0  0  0  0  0  0
   -1.5159   -0.0551   -1.7215 C   0  0  0  0  0  0  0  0  0  0  0  0
   -4.2757    0.3338    0.5055 C   0  0  0  0  0  0  0  0  0  0  0  0
   -1.9435    1.2714    0.3884 C   0  0  0  0  0  0  0  0  0  0  0  0
   -0.8488    1.7599    1.0279 C   0  0  0  0  0  0  0  0  0  0  0  0
   -2.9780    0.6416    2.5385 C   0  0  0  0  0  0  0  0  0  0  0  0
   -0.7797    1.6817    2.4746 C   0  0  0  0  0  0  0  0  0  0  0  0
   -1.7583    1.1498    3.2066 C   0  0  0  0  0  0  0  0  0  0  0  0
   -0.1351   -2.6163   -0.6552 C   0  0  0  0  0  0  0  0  0  0  0  0
    0.2850    2.3562    0.2881 C   0  0  0  0  0  0  0  0  0  0  0  0
    1.0646   -2.7528   -1.3340 C   0  0  0  0  0  0  0  0  0  0  0  0
   -0.1697   -2.3696    0.7074 C   0  0  0  0  0  0  0  0  0  0  0  0
    1.3318    1.5462   -0.1405 C   0  0  0  0  0  0  0  0  0  0  0  0
    0.2972    3.7230    0.0274 C   0  0  0  0  0  0  0  0  0  0  0  0
    2.2636   -2.6396   -0.6304 C   0  0  0  0  0  0  0  0  0  0  0  0
    1.0295   -2.2563    1.4109 C   0  0  0  0  0  0  0  0  0  0  0  0
    2.4018    2.1085   -0.8368 C   0  0  0  0  0  0  0  0  0  0  0  0
    1.3671    4.2853   -0.6690 C   0  0  0  0  0  0  0  0  0  0  0  0
    2.2461   -2.3913    0.7420 C   0  0  0  0  0  0  0  0  0  0  0  0
    2.4194    3.4781   -1.1012 C   0  0  0  0  0  0  0  0  0  0  0  0
    4.7523   -2.3821    0.9503 C   0  0  0  0  0  0  0  0  0  0  0  0
    5.1853    3.7921   -0.9086 C   0  0  0  0  0  0  0  0  0  0  0  0
    5.7792   -2.1970    2.0391 C   0  0  0  0  0  0  0  0  0  0  0  0
   -5.3608    0.3464   -1.3427 H   0  0  0  0  0  0  0  0  0  0  0  0
   -1.5093    2.0894   -1.5768 H   0  0  0  0  0  0  0  0  0  0  0  0
   -3.9272    2.3886   -1.2165 H   0  0  0  0  0  0  0  0  0  0  0  0
   -3.5902    1.4564   -2.6752 H   0  0  0  0  0  0  0  0  0  0  0  0
   -4.3347   -1.8931   -1.1085 H   0  0  0  0  0  0  0  0  0  0  0  0
   -3.9115   -1.1180   -2.6466 H   0  0  0  0  0  0  0  0  0  0  0  0
   -1.5559   -0.0178   -2.8175 H   0  0  0  0  0  0  0  0  0  0  0  0
   -0.4687   -0.1657   -1.4397 H   0  0  0  0  0  0  0  0  0  0  0  0
   -5.0133    1.0772    0.8386 H   0  0  0  0  0  0  0  0  0  0  0  0
   -4.5984   -0.6213    0.9392 H   0  0  0  0  0  0  0  0  0  0  0  0
    0.1103    2.0615    2.9680 H   0  0  0  0  0  0  0  0  0  0  0  0
   -1.6956    1.0903    4.2865 H   0  0  0  0  0  0  0  0  0  0  0  0
    1.1043   -2.9476   -2.4010 H   0  0  0  0  0  0  0  0  0  0  0  0
   -1.1104   -2.2619    1.2394 H   0  0  0  0  0  0  0  0  0  0  0  0
    1.3365    0.4808    0.0631 H   0  0  0  0  0  0  0  0  0  0  0  0
   -0.5163    4.3640    0.3579 H   0  0  0  0  0  0  0  0  0  0  0  0
    3.1647   -2.7558   -1.2162 H   0  0  0  0  0  0  0  0  0  0  0  0
    1.0005   -2.0607    2.4798 H   0  0  0  0  0  0  0  0  0  0  0  0
    3.2076    1.4585   -1.1681 H   0  0  0  0  0  0  0  0  0  0  0  0
    1.3633    5.3546   -0.8656 H   0  0  0  0  0  0  0  0  0  0  0  0
    3.3487   -2.0961    2.4426 H   0  0  0  0  0  0  0  0  0  0  0  0
    6.0897    4.2643   -1.3015 H   0  0  0  0  0  0  0  0  0  0  0  0
    5.3470    2.7118   -0.8714 H   0  0  0  0  0  0  0  0  0  0  0  0
    5.0054    4.1683    0.1022 H   0  0  0  0  0  0  0  0  0  0  0  0
    5.6861   -1.1951    2.4677 H   0  0  0  0  0  0  0  0  0  0  0  0
    6.7842   -2.3147    1.6247 H   0  0  0  0  0  0  0  0  0  0  0  0
    5.6292   -2.9452    2.8224 H   0  0  0  0  0  0  0  0  0  0  0  0
  1  3  2  0  0  0  0
  1  4  2  0  0  0  0
  1  7  1  0  0  0  0
  1 21  1  0  0  0  0
  2 32  1  0  0  0  0
  2 34  1  0  0  0  0
  5 18  2  0  0  0  0
  6 33  2  0  0  0  0
  7 13  1  0  0  0  0
  7 14  1  0  0  0  0
  8 15  1  0  0  0  0
  8 16  1  0  0  0  0
  8 18  1  0  0  0  0
  9 31  1  0  0  0  0
  9 33  1  0  0  0  0
  9 56  1  0  0  0  0
 10 12  1  0  0  0  0
 10 13  1  0  0  0  0
 10 15  1  0  0  0  0
 10 36  1  0  0  0  0
 11 12  1  0  0  0  0
 11 14  1  0  0  0  0
 11 16  1  0  0  0  0
 11 37  1  0  0  0  0
 12 38  1  0  0  0  0
 12 39  1  0  0  0  0
 13 40  1  0  0  0  0
 13 41  1  0  0  0  0
 14 42  1  0  0  0  0
 14 43  1  0  0  0  0
 15 44  1  0  0  0  0
 15 45  1  0  0  0  0
 16 17  2  0  0  0  0
 17 19  1  0  0  0  0
 17 22  1  0  0  0  0
 18 20  1  0  0  0  0
 19 20  2  0  0  0  0
 19 46  1  0  0  0  0
 20 47  1  0  0  0  0
 21 23  2  0  0  0  0
 21 24  1  0  0  0  0
 22 25  2  0  0  0  0
 22 26  1  0  0  0  0
 23 27  1  0  0  0  0
 23 48  1  0  0  0  0
 24 28  2  0  0  0  0
 24 49  1  0  0  0  0
 25 29  1  0  0  0  0
 25 50  1  0  0  0  0
 26 30  2  0  0  0  0
 26 51  1  0  0  0  0
 27 31  2  0  0  0  0
 27 52  1  0  0  0  0
 28 31  1  0  0  0  0
 28 53  1  0  0  0  0
 29 32  2  0  0  0  0
 29 54  1  0  0  0  0
 30 32  1  0  0  0  0
 30 55  1  0  0  0  0
 33 35  1  0  0  0  0
 34 57  1  0  0  0  0
 34 58  1  0  0  0  0
 34 59  1  0  0  0  0
 35 60  1  0  0  0  0
 35 61  1  0  0  0  0
 35 62  1  0  0  0  0
M  END
> <PUBCHEM_COMPOUND_CID>
7144237

> <PUBCHEM_CONFORMER_RMSD>
1

> <PUBCHEM_CONFORMER_DIVERSEORDER>
1
8
10
2
9
3
4
7
6
5

> <PUBCHEM_MMFF94_PARTIAL_CHARGES>
44
1 1.45
11 0.14
13 0.36
14 0.36
15 0.3
16 -0.03
17 -0.03
18 0.62
19 -0.15
2 -0.33
20 -0.14
21 -0.01
22 0.03
23 -0.15
24 -0.15
25 -0.15
26 -0.15
27 -0.15
28 -0.15
29 -0.15
3 -0.65
30 -0.15
31 0.12
32 0.1
33 0.57
34 0.23
35 0.06
4 -0.65
46 0.15
47 0.15
48 0.15
49 0.15
5 -0.57
50 0.15
51 0.15
52 0.15
53 0.15
54 0.15
55 0.15
56 0.37
6 -0.57
7 -0.85
8 -0.47
9 -0.55

> <PUBCHEM_EFFECTIVE_ROTOR_COUNT>
7

> <PUBCHEM_PHARMACOPHORE_FEATURES>
11
1 3 acceptor
1 34 hydrophobe
1 4 acceptor
1 5 acceptor
1 6 acceptor
1 9 donor
6 21 23 24 27 28 31 rings
6 22 25 26 29 30 32 rings
6 7 10 11 12 13 14 rings
6 8 10 11 12 15 16 rings
6 8 16 17 18 19 20 rings

> <PUBCHEM_HEAVY_ATOM_COUNT>
35

> <PUBCHEM_ATOM_DEF_STEREO_COUNT>
2

> <PUBCHEM_ATOM_UDEF_STEREO_COUNT>
0

> <PUBCHEM_BOND_DEF_STEREO_COUNT>
0

> <PUBCHEM_BOND_UDEF_STEREO_COUNT>
0

> <PUBCHEM_ISOTOPIC_ATOM_COUNT>
0

> <PUBCHEM_COMPONENT_COUNT>
1

> <PUBCHEM_CACTVS_TAUTO_COUNT>
2

> <PUBCHEM_CONFORMER_ID>
006D032D00000001

> <PUBCHEM_MMFF94_ENERGY>
94.3443

> <PUBCHEM_FEATURE_SELFOVERLAP>
57.424

> <PUBCHEM_SHAPE_FINGERPRINT>
10675989 125 16243759492559312157
11285246 1 17477203203240340276
11578080 2 17099506378075872885
12156800 1 16629982000253578163
12788726 201 17051644902710792673
13111901 51 17831289868321667768
1361 2 16826985570289917948
13911987 19 17969516917784308414
14251740 79 17765163052076072932
14840074 17 18269557143939412928
15463212 79 17903919203420014460
15840311 113 16192271623149107281
17627616 140 18262235638139963116
20642791 178 18342171134259256197
20764821 26 18119544364998683732
21796203 349 18048349719931633984
21927370 108 18410288103671287642
23419403 2 17749973093217474897
3027735 51 17834401498563659258
35225 105 16974547108990415633
469060 322 18266453200839223747
484985 159 17125959725205844469
50677037 204 18412826851251357430
54131252 152 18045230595119696332
57527452 28 17414683550640635133
6287921 2 17485382083476141198
6608658 132 18191310365180255158

> <PUBCHEM_SHAPE_MULTIPOLES>
689.56
8.76
6.25
2.81
7.42
0.97
1.63
-0.28
0.39
8.65
-2.1
-2.09
-0.13
-4.5

> <PUBCHEM_SHAPE_SELFOVERLAP>
1474.169

> <PUBCHEM_SHAPE_VOLUME>
383.4

> <PUBCHEM_COORDINATE_TYPE>
2
5
10

$$$$
