51136672
  -OEChem-12032416143D

 60 62  0     1  0  0  0  0  0999 V2000
    0.7727   -3.7902   -0.8415 O   0  0  0  0  0  0  0  0  0  0  0  0
    5.7625    2.6960   -1.4224 O   0  0  0  0  0  0  0  0  0  0  0  0
    6.2035    0.6944   -0.4326 O   0  0  0  0  0  0  0  0  0  0  0  0
   -5.4726    1.1157   -1.2557 O   0  0  0  0  0  0  0  0  0  0  0  0
    1.7203   -2.0709    0.3925 N   0  0  0  0  0  0  0  0  0  0  0  0
    0.1099    1.9574    1.7670 N   0  0  0  0  0  0  0  0  0  0  0  0
   -0.5640   -2.6358    0.6210 N   0  0  0  0  0  0  0  0  0  0  0  0
    2.0711    0.3570    0.7493 C   0  0  2  0  0  0  0  0  0  0  0  0
    3.4600    0.2202    0.0710 C   0  0  1  0  0  0  0  0  0  0  0  0
    3.5094   -0.9791   -0.8930 C   0  0  0  0  0  0  0  0  0  0  0  0
    1.6728   -0.9866    1.3841 C   0  0  0  0  0  0  0  0  0  0  0  0
    3.0389   -2.2638   -0.2126 C   0  0  0  0  0  0  0  0  0  0  0  0
    0.9648    0.8551   -0.1880 C   0  0  0  0  0  0  0  0  0  0  0  0
    3.9113    1.4982   -0.6353 C   0  0  0  0  0  0  0  0  0  0  0  0
   -0.1722    1.4315    0.6208 C   0  0  0  0  0  0  0  0  0  0  0  0
    0.6527   -2.8952    0.0018 C   0  0  0  0  0  0  0  0  0  0  0  0
   -1.5496    1.3614    0.0697 C   0  0  0  0  0  0  0  0  0  0  0  0
    5.4056    1.5450   -0.7969 C   0  0  0  0  0  0  0  0  0  0  0  0
   -2.6020    1.5386    0.9768 C   0  0  0  0  0  0  0  0  0  0  0  0
   -2.2759    1.7690    2.4225 C   0  0  0  0  0  0  0  0  0  0  0  0
   -0.9854    2.5714    2.5253 C   0  0  0  0  0  0  0  0  0  0  0  0
   -1.8113    1.1173   -1.2798 C   0  0  0  0  0  0  0  0  0  0  0  0
   -1.7579   -3.3930    0.3184 C   0  0  0  0  0  0  0  0  0  0  0  0
   -3.9225    1.4441    0.5287 C   0  0  0  0  0  0  0  0  0  0  0  0
   -3.1331    1.0401   -1.7207 C   0  0  0  0  0  0  0  0  0  0  0  0
   -4.1858    1.2002   -0.8192 C   0  0  0  0  0  0  0  0  0  0  0  0
   -2.5008   -2.7643   -0.8534 C   0  0  0  0  0  0  0  0  0  0  0  0
   -2.6519   -3.4958    1.5478 C   0  0  0  0  0  0  0  0  0  0  0  0
   -5.6708    0.8620   -2.6457 C   0  0  0  0  0  0  0  0  0  0  0  0
    2.2276    1.0699    1.5686 H   0  0  0  0  0  0  0  0  0  0  0  0
    4.1710    0.0046    0.8827 H   0  0  0  0  0  0  0  0  0  0  0  0
    2.8683   -0.7800   -1.7613 H   0  0  0  0  0  0  0  0  0  0  0  0
    4.5236   -1.1329   -1.2770 H   0  0  0  0  0  0  0  0  0  0  0  0
    0.7140   -0.9071    1.8944 H   0  0  0  0  0  0  0  0  0  0  0  0
    2.3981   -1.2504    2.1651 H   0  0  0  0  0  0  0  0  0  0  0  0
    3.0237   -3.0806   -0.9408 H   0  0  0  0  0  0  0  0  0  0  0  0
    3.7318   -2.5520    0.5867 H   0  0  0  0  0  0  0  0  0  0  0  0
    1.3184    1.6716   -0.8258 H   0  0  0  0  0  0  0  0  0  0  0  0
    0.6208    0.0492   -0.8416 H   0  0  0  0  0  0  0  0  0  0  0  0
    3.4552    1.5833   -1.6277 H   0  0  0  0  0  0  0  0  0  0  0  0
    3.6284    2.3717   -0.0358 H   0  0  0  0  0  0  0  0  0  0  0  0
   -2.1631    0.7965    2.9168 H   0  0  0  0  0  0  0  0  0  0  0  0
   -3.0836    2.3140    2.9237 H   0  0  0  0  0  0  0  0  0  0  0  0
   -0.6873    2.6378    3.5773 H   0  0  0  0  0  0  0  0  0  0  0  0
   -1.1328    3.5988    2.1694 H   0  0  0  0  0  0  0  0  0  0  0  0
   -0.6937   -1.8073    1.1846 H   0  0  0  0  0  0  0  0  0  0  0  0
   -1.0144    0.9982   -2.0069 H   0  0  0  0  0  0  0  0  0  0  0  0
   -1.4585   -4.4076    0.0293 H   0  0  0  0  0  0  0  0  0  0  0  0
   -4.7466    1.5614    1.2279 H   0  0  0  0  0  0  0  0  0  0  0  0
    6.7338    2.7596   -1.5448 H   0  0  0  0  0  0  0  0  0  0  0  0
   -3.2704    0.8514   -2.7801 H   0  0  0  0  0  0  0  0  0  0  0  0
   -3.3732   -3.3656   -1.1296 H   0  0  0  0  0  0  0  0  0  0  0  0
   -1.8553   -2.6798   -1.7341 H   0  0  0  0  0  0  0  0  0  0  0  0
   -2.8511   -1.7595   -0.6002 H   0  0  0  0  0  0  0  0  0  0  0  0
   -3.5433   -4.0950    1.3353 H   0  0  0  0  0  0  0  0  0  0  0  0
   -2.1157   -3.9673    2.3786 H   0  0  0  0  0  0  0  0  0  0  0  0
   -2.9783   -2.5059    1.8862 H   0  0  0  0  0  0  0  0  0  0  0  0
   -6.7518    0.8254   -2.8164 H   0  0  0  0  0  0  0  0  0  0  0  0
   -5.2682   -0.1138   -2.9381 H   0  0  0  0  0  0  0  0  0  0  0  0
   -5.2773    1.6762   -3.2636 H   0  0  0  0  0  0  0  0  0  0  0  0
  1 16  2  0  0  0  0
  2 18  1  0  0  0  0
  2 50  1  0  0  0  0
  3 18  2  0  0  0  0
  4 26  1  0  0  0  0
  4 29  1  0  0  0  0
  5 11  1  0  0  0  0
  5 12  1  0  0  0  0
  5 16  1  0  0  0  0
  6 15  2  0  0  0  0
  6 21  1  0  0  0  0
  7 16  1  0  0  0  0
  7 23  1  0  0  0  0
  7 46  1  0  0  0  0
  8  9  1  0  0  0  0
  8 11  1  0  0  0  0
  8 13  1  0  0  0  0
  8 30  1  0  0  0  0
  9 10  1  0  0  0  0
  9 14  1  0  0  0  0
  9 31  1  0  0  0  0
 10 12  1  0  0  0  0
 10 32  1  0  0  0  0
 10 33  1  0  0  0  0
 11 34  1  0  0  0  0
 11 35  1  0  0  0  0
 12 36  1  0  0  0  0
 12 37  1  0  0  0  0
 13 15  1  0  0  0  0
 13 38  1  0  0  0  0
 13 39  1  0  0  0  0
 14 18  1  0  0  0  0
 14 40  1  0  0  0  0
 14 41  1  0  0  0  0
 15 17  1  0  0  0  0
 17 19  2  0  0  0  0
 17 22  1  0  0  0  0
 19 20  1  0  0  0  0
 19 24  1  0  0  0  0
 20 21  1  0  0  0  0
 20 42  1  0  0  0  0
 20 43  1  0  0  0  0
 21 44  1  0  0  0  0
 21 45  1  0  0  0  0
 22 25  2  0  0  0  0
 22 47  1  0  0  0  0
 23 27  1  0  0  0  0
 23 28  1  0  0  0  0
 23 48  1  0  0  0  0
 24 26  2  0  0  0  0
 24 49  1  0  0  0  0
 25 26  1  0  0  0  0
 25 51  1  0  0  0  0
 27 52  1  0  0  0  0
 27 53  1  0  0  0  0
 27 54  1  0  0  0  0
 28 55  1  0  0  0  0
 28 56  1  0  0  0  0
 28 57  1  0  0  0  0
 29 58  1  0  0  0  0
 29 59  1  0  0  0  0
 29 60  1  0  0  0  0
M  END
> <PUBCHEM_COMPOUND_CID>
51136672

> <PUBCHEM_CONFORMER_RMSD>
1

> <PUBCHEM_CONFORMER_DIVERSEORDER>
1
79
127
94
59
5
51
143
38
39
30
21
121
129
49
14
47
84
93
126
107
142
60
40
139
124
95
85
83
75
82
46
34
29
120
131
56
27
133
106
92
109
122
13
138
76
134
71
74
112
97
98
58
42
44
135
113
110
62
102
9
145
128
57
101
18
81
105
140
96
33
55
132
6
87
125
103
61
123
65
20
108
3
24
115
10
77
19
88
72
111
130
31
118
69
2
91
66
8
28
50
141
68
7
15
104
114
43
80
148
89
4
64
16
45
23
67
41
12
26
146
119
35
78
63
90
117
136
147
32
53
100
36
70
86
137
144
116
73
22
11
54
48
17
52
99
37
25

> <PUBCHEM_MMFF94_PARTIAL_CHARGES>
29
1 -0.57
11 0.3
12 0.3
13 0.06
14 0.06
15 0.3
16 0.69
17 0.09
18 0.66
19 -0.14
2 -0.65
20 0.14
21 0.25
22 -0.15
23 0.3
24 -0.15
25 -0.15
26 0.08
29 0.28
3 -0.57
4 -0.36
46 0.37
47 0.15
49 0.15
5 -0.66
50 0.5
51 0.15
6 -0.7
7 -0.73

> <PUBCHEM_EFFECTIVE_ROTOR_COUNT>
9.6

> <PUBCHEM_PHARMACOPHORE_FEATURES>
11
1 1 acceptor
1 2 acceptor
1 3 acceptor
1 4 acceptor
1 6 acceptor
1 7 donor
3 2 3 18 anion
3 23 27 28 hydrophobe
6 17 19 22 24 25 26 rings
6 5 8 9 10 11 12 rings
6 6 15 17 19 20 21 rings

> <PUBCHEM_HEAVY_ATOM_COUNT>
29

> <PUBCHEM_ATOM_DEF_STEREO_COUNT>
2

> <PUBCHEM_ATOM_UDEF_STEREO_COUNT>
0

> <PUBCHEM_BOND_DEF_STEREO_COUNT>
0

> <PUBCHEM_BOND_UDEF_STEREO_COUNT>
0

> <PUBCHEM_ISOTOPIC_ATOM_COUNT>
0

> <PUBCHEM_COMPONENT_COUNT>
1

> <PUBCHEM_CACTVS_TAUTO_COUNT>
2

> <PUBCHEM_CONFORMER_ID>
030C48A000000001

> <PUBCHEM_MMFF94_ENERGY>
75.0557

> <PUBCHEM_FEATURE_SELFOVERLAP>
55.904

> <PUBCHEM_SHAPE_FINGERPRINT>
104564 63 18265617773770644146
11135609 187 18411976932488835329
12156800 1 17478106812914658719
12788726 201 17632296714372139793
13583140 156 17240771636254175512
1361 2 18114737149490045317
13911987 19 18261968422275937924
14114206 34 17916565567404153061
14787075 74 18271799082750909623
14931854 50 18272357660332698045
17138139 8 18057297639752395415
17492 54 18337659859229720599
17980427 23 13768224812503319114
19319366 153 18270104743311109646
21033650 10 17058120756385976992
21236236 1 18265341779883794318
23419403 2 16986879188526327592
238 59 17972311815869278819
27425 322 16515677849841127997
4409770 3 18268153230531085258
469060 322 17460048480746934138
5171179 24 17627223803570015329
6287921 2 17196852576185765991
7237137 82 18193852663332812868

> <PUBCHEM_SHAPE_MULTIPOLES>
558.39
10.61
4.39
2.06
6.27
5.05
-0.34
-7.04
7.41
-0.58
-0.98
-2.43
-1.27
-0.37

> <PUBCHEM_SHAPE_SELFOVERLAP>
1165.752

> <PUBCHEM_SHAPE_VOLUME>
314.8

> <PUBCHEM_COORDINATE_TYPE>
2
5
10

$$$$
