45783973
  -OEChem-12032416253D

 69 71  0     1  0  0  0  0  0999 V2000
   -0.8679    0.9843    1.0005 O   0  0  0  0  0  0  0  0  0  0  0  0
    4.6951   -4.6984    1.1815 O   0  0  0  0  0  0  0  0  0  0  0  0
    3.9335   -1.3656   -0.1849 N   0  0  0  0  0  0  0  0  0  0  0  0
   -0.8311    3.1005    1.7253 N   0  0  0  0  0  0  0  0  0  0  0  0
   -2.1482    2.7522    1.4906 N   0  0  0  0  0  0  0  0  0  0  0  0
   -6.3179   -1.9211   -0.4693 N   0  0  0  0  0  0  0  0  0  0  0  0
    2.0676    0.6426   -1.4172 C   0  0  1  0  0  0  0  0  0  0  0  0
    3.6137    0.6797   -1.5070 C   0  0  1  0  0  0  0  0  0  0  0  0
    1.5194    2.0260   -1.0352 C   0  0  0  0  0  0  0  0  0  0  0  0
    2.0749    2.5208    0.3136 C   0  0  2  0  0  0  0  0  0  0  0  0
    1.4325    0.1778   -2.7313 C   0  0  0  0  0  0  0  0  0  0  0  0
    3.5766    2.3392    0.4047 C   0  0  0  0  0  0  0  0  0  0  0  0
    4.2486    1.5225   -0.4260 C   0  0  0  0  0  0  0  0  0  0  0  0
    4.2043   -0.7344   -1.4650 C   0  0  0  0  0  0  0  0  0  0  0  0
    1.3670    1.8352    1.4875 C   0  0  0  0  0  0  0  0  0  0  0  0
    1.3462    1.3364   -3.7196 C   0  0  0  0  0  0  0  0  0  0  0  0
    0.0519   -0.4177   -2.4739 C   0  0  0  0  0  0  0  0  0  0  0  0
    4.2951    3.1536    1.4443 C   0  0  0  0  0  0  0  0  0  0  0  0
   -0.1197    2.0387    1.4262 C   0  0  0  0  0  0  0  0  0  0  0  0
    4.4829   -2.7154   -0.1390 C   0  0  0  0  0  0  0  0  0  0  0  0
    4.1567   -3.3828    1.1875 C   0  0  0  0  0  0  0  0  0  0  0  0
   -2.1218    1.5095    1.0690 C   0  0  0  0  0  0  0  0  0  0  0  0
   -3.1898    0.6362    0.6773 C   0  0  0  0  0  0  0  0  0  0  0  0
    4.4413   -5.3713    2.4073 C   0  0  0  0  0  0  0  0  0  0  0  0
   -4.5093    1.0873    0.7154 C   0  0  0  0  0  0  0  0  0  0  0  0
   -2.9093   -0.6642    0.2578 C   0  0  0  0  0  0  0  0  0  0  0  0
   -5.5480    0.2382    0.3343 C   0  0  0  0  0  0  0  0  0  0  0  0
   -3.9481   -1.5134   -0.1234 C   0  0  0  0  0  0  0  0  0  0  0  0
   -5.2673   -1.0624   -0.0851 C   0  0  0  0  0  0  0  0  0  0  0  0
   -6.0366   -3.2717   -0.9140 C   0  0  0  0  0  0  0  0  0  0  0  0
   -7.6922   -1.4621   -0.4320 C   0  0  0  0  0  0  0  0  0  0  0  0
    1.7741   -0.0612   -0.6283 H   0  0  0  0  0  0  0  0  0  0  0  0
    3.9153    1.1312   -2.4607 H   0  0  0  0  0  0  0  0  0  0  0  0
    1.8450    2.7746   -1.7706 H   0  0  0  0  0  0  0  0  0  0  0  0
    0.4266    2.0515   -1.0546 H   0  0  0  0  0  0  0  0  0  0  0  0
    1.8592    3.5980    0.3619 H   0  0  0  0  0  0  0  0  0  0  0  0
    2.0346   -0.6129   -3.1900 H   0  0  0  0  0  0  0  0  0  0  0  0
    5.3327    1.4682   -0.3458 H   0  0  0  0  0  0  0  0  0  0  0  0
    5.2892   -0.6755   -1.6273 H   0  0  0  0  0  0  0  0  0  0  0  0
    3.8029   -1.3430   -2.2816 H   0  0  0  0  0  0  0  0  0  0  0  0
    1.7167    2.2510    2.4401 H   0  0  0  0  0  0  0  0  0  0  0  0
    1.5908    0.7620    1.5187 H   0  0  0  0  0  0  0  0  0  0  0  0
    2.3028    1.8499   -3.8535 H   0  0  0  0  0  0  0  0  0  0  0  0
    1.0636    0.9473   -4.7057 H   0  0  0  0  0  0  0  0  0  0  0  0
    0.5758    2.0696   -3.4583 H   0  0  0  0  0  0  0  0  0  0  0  0
   -0.6447    0.3149   -2.0549 H   0  0  0  0  0  0  0  0  0  0  0  0
    0.1123   -1.2640   -1.7813 H   0  0  0  0  0  0  0  0  0  0  0  0
   -0.3849   -0.7884   -3.4078 H   0  0  0  0  0  0  0  0  0  0  0  0
    4.0783    4.2182    1.3097 H   0  0  0  0  0  0  0  0  0  0  0  0
    5.3818    3.0297    1.3862 H   0  0  0  0  0  0  0  0  0  0  0  0
    3.9844    2.8586    2.4509 H   0  0  0  0  0  0  0  0  0  0  0  0
    4.3271   -0.8167    0.5780 H   0  0  0  0  0  0  0  0  0  0  0  0
    5.5713   -2.6991   -0.2773 H   0  0  0  0  0  0  0  0  0  0  0  0
    4.0726   -3.3274   -0.9521 H   0  0  0  0  0  0  0  0  0  0  0  0
    3.0704   -3.4349    1.3299 H   0  0  0  0  0  0  0  0  0  0  0  0
    4.5937   -2.8131    2.0169 H   0  0  0  0  0  0  0  0  0  0  0  0
   -4.7505    2.0971    1.0389 H   0  0  0  0  0  0  0  0  0  0  0  0
   -1.8943   -1.0513    0.2153 H   0  0  0  0  0  0  0  0  0  0  0  0
    4.9111   -4.8404    3.2409 H   0  0  0  0  0  0  0  0  0  0  0  0
    3.3644   -5.4644    2.5781 H   0  0  0  0  0  0  0  0  0  0  0  0
    4.8726   -6.3740    2.3451 H   0  0  0  0  0  0  0  0  0  0  0  0
   -6.5568    0.6361    0.3815 H   0  0  0  0  0  0  0  0  0  0  0  0
   -3.6784   -2.5156   -0.4417 H   0  0  0  0  0  0  0  0  0  0  0  0
   -5.4063   -3.2703   -1.8103 H   0  0  0  0  0  0  0  0  0  0  0  0
   -6.9535   -3.8099   -1.1793 H   0  0  0  0  0  0  0  0  0  0  0  0
   -5.5510   -3.8555   -0.1241 H   0  0  0  0  0  0  0  0  0  0  0  0
   -8.3890   -2.2434   -0.7559 H   0  0  0  0  0  0  0  0  0  0  0  0
   -7.8438   -0.6112   -1.1054 H   0  0  0  0  0  0  0  0  0  0  0  0
   -7.9892   -1.1834    0.5852 H   0  0  0  0  0  0  0  0  0  0  0  0
  1 19  1  0  0  0  0
  1 22  1  0  0  0  0
  2 21  1  0  0  0  0
  2 24  1  0  0  0  0
  3 14  1  0  0  0  0
  3 20  1  0  0  0  0
  3 52  1  0  0  0  0
  4  5  1  0  0  0  0
  4 19  2  0  0  0  0
  5 22  2  0  0  0  0
  6 29  1  0  0  0  0
  6 30  1  0  0  0  0
  6 31  1  0  0  0  0
  7  8  1  0  0  0  0
  7  9  1  0  0  0  0
  7 11  1  0  0  0  0
  7 32  1  0  0  0  0
  8 13  1  0  0  0  0
  8 14  1  0  0  0  0
  8 33  1  0  0  0  0
  9 10  1  0  0  0  0
  9 34  1  0  0  0  0
  9 35  1  0  0  0  0
 10 12  1  0  0  0  0
 10 15  1  0  0  0  0
 10 36  1  0  0  0  0
 11 16  1  0  0  0  0
 11 17  1  0  0  0  0
 11 37  1  0  0  0  0
 12 13  2  0  0  0  0
 12 18  1  0  0  0  0
 13 38  1  0  0  0  0
 14 39  1  0  0  0  0
 14 40  1  0  0  0  0
 15 19  1  0  0  0  0
 15 41  1  0  0  0  0
 15 42  1  0  0  0  0
 16 43  1  0  0  0  0
 16 44  1  0  0  0  0
 16 45  1  0  0  0  0
 17 46  1  0  0  0  0
 17 47  1  0  0  0  0
 17 48  1  0  0  0  0
 18 49  1  0  0  0  0
 18 50  1  0  0  0  0
 18 51  1  0  0  0  0
 20 21  1  0  0  0  0
 20 53  1  0  0  0  0
 20 54  1  0  0  0  0
 21 55  1  0  0  0  0
 21 56  1  0  0  0  0
 22 23  1  0  0  0  0
 23 25  2  0  0  0  0
 23 26  1  0  0  0  0
 24 59  1  0  0  0  0
 24 60  1  0  0  0  0
 24 61  1  0  0  0  0
 25 27  1  0  0  0  0
 25 57  1  0  0  0  0
 26 28  2  0  0  0  0
 26 58  1  0  0  0  0
 27 29  2  0  0  0  0
 27 62  1  0  0  0  0
 28 29  1  0  0  0  0
 28 63  1  0  0  0  0
 30 64  1  0  0  0  0
 30 65  1  0  0  0  0
 30 66  1  0  0  0  0
 31 67  1  0  0  0  0
 31 68  1  0  0  0  0
 31 69  1  0  0  0  0
M  END
> <PUBCHEM_COMPOUND_CID>
45783973

> <PUBCHEM_CONFORMER_RMSD>
1

> <PUBCHEM_CONFORMER_DIVERSEORDER>
1
38
32
41
64
89
75
85
70
11
65
88
52
36
56
14
76
2
80
28
59
21
7
53
67
29
15
78
27
39
51
22
34
63
37
61
57
33
83
18
82
23
35
68
60
6
46
45
86
10
73
79
47
25
42
77
72
24
26
87
17
44
49
71
13
84
19
66
30
62
9
8
74
16
5
69
58
54
50
55
12
48
31
43
81
40
4
3
20

> <PUBCHEM_MMFF94_PARTIAL_CHARGES>
32
1 -0.28
10 0.14
12 -0.28
13 -0.29
14 0.27
15 0.18
18 0.14
19 0.3
2 -0.56
20 0.27
21 0.28
22 0.43
23 0.05
24 0.28
25 -0.15
26 -0.15
27 -0.15
28 -0.15
29 0.1
3 -0.9
30 0.37
31 0.37
38 0.15
4 -0.34
5 -0.34
52 0.36
57 0.15
58 0.15
6 -0.84
62 0.15
63 0.15
8 0.14

> <PUBCHEM_EFFECTIVE_ROTOR_COUNT>
10.8

> <PUBCHEM_PHARMACOPHORE_FEATURES>
8
1 2 acceptor
1 3 cation
1 3 donor
1 6 cation
3 11 16 17 hydrophobe
5 1 4 5 19 22 rings
6 23 25 26 27 28 29 rings
6 7 8 9 10 12 13 rings

> <PUBCHEM_HEAVY_ATOM_COUNT>
31

> <PUBCHEM_ATOM_DEF_STEREO_COUNT>
3

> <PUBCHEM_ATOM_UDEF_STEREO_COUNT>
0

> <PUBCHEM_BOND_DEF_STEREO_COUNT>
0

> <PUBCHEM_BOND_UDEF_STEREO_COUNT>
0

> <PUBCHEM_ISOTOPIC_ATOM_COUNT>
0

> <PUBCHEM_COMPONENT_COUNT>
1

> <PUBCHEM_CACTVS_TAUTO_COUNT>
1

> <PUBCHEM_CONFORMER_ID>
02BA9BA500000001

> <PUBCHEM_MMFF94_ENERGY>
74.4001

> <PUBCHEM_FEATURE_SELFOVERLAP>
40.596

> <PUBCHEM_SHAPE_FINGERPRINT>
10622 236 18263642857714019466
11135609 149 18116692085089640606
11963148 33 18055060215205364071
12166972 35 18260554398550349543
12422481 6 16559028260007662429
12655364 74 11234017722163277650
12977781 61 17900227885704152780
131258 38 18340759434017199182
13165053 137 14005170229704241475
13402501 40 17702956975360350013
13533116 47 18408605872339159327
14068700 675 18339640019183646514
14674994 50 16959569132242384270
15003188 105 18341899601825945574
15357212 105 9294713367971502371
15419009 47 17608643921461770029
16120349 67 10374426073367318354
17492 89 17916883321747397980
18681886 176 16773528719939584212
19315092 285 18409446951858805382
20775438 99 18187642544049647418
208703 8 18272655602030022166
21197605 99 16914822698152699773
21315764 119 17967530199494625391
21623969 137 17059508472813521077
23559900 14 17415864417170082236
25222932 49 17986389112374178719
3004659 81 18201450198133179349
439807 62 18341338881387747271
46194498 28 15649629975223580976
484985 159 17034996712393186922
5104073 3 17489599956441507785
513532 50 16660927802277811156
59025328 239 17749398009981306252
6677587 24 16807025440141950774
6679774 75 17482528078431169880
6823239 73 16914847789357430844

> <PUBCHEM_SHAPE_MULTIPOLES>
606.3
15.18
5.38
2.57
24.77
7.99
-1.92
14.18
0.52
-8.94
4.65
-2.65
-0.3
-4.05

> <PUBCHEM_SHAPE_SELFOVERLAP>
1253.384

> <PUBCHEM_SHAPE_VOLUME>
349.1

> <PUBCHEM_COORDINATE_TYPE>
2
5
10

$$$$
