51136684
  -OEChem-12032416143D

 60 62  0     1  0  0  0  0  0999 V2000
    0.4549   -3.8617   -0.2490 O   0  0  0  0  0  0  0  0  0  0  0  0
    5.7632    2.1838   -1.8553 O   0  0  0  0  0  0  0  0  0  0  0  0
    6.1479    0.2848   -0.6610 O   0  0  0  0  0  0  0  0  0  0  0  0
   -3.5697    0.7140   -2.7475 O   0  0  0  0  0  0  0  0  0  0  0  0
    1.5717   -2.0763    0.7215 N   0  0  0  0  0  0  0  0  0  0  0  0
    0.2798    2.1775    1.6944 N   0  0  0  0  0  0  0  0  0  0  0  0
   -0.7233   -2.4645    1.1360 N   0  0  0  0  0  0  0  0  0  0  0  0
    2.0815    0.3491    0.7702 C   0  0  2  0  0  0  0  0  0  0  0  0
    3.4170    0.0472    0.0400 C   0  0  1  0  0  0  0  0  0  0  0  0
    3.3397   -1.2553   -0.7770 C   0  0  0  0  0  0  0  0  0  0  0  0
    1.6460   -0.8847    1.5793 C   0  0  0  0  0  0  0  0  0  0  0  0
    2.8383   -2.4209    0.0742 C   0  0  0  0  0  0  0  0  0  0  0  0
    0.9511    0.8061   -0.1593 C   0  0  0  0  0  0  0  0  0  0  0  0
    3.8973    1.2046   -0.8352 C   0  0  0  0  0  0  0  0  0  0  0  0
   -0.1004    1.5427    0.6350 C   0  0  0  0  0  0  0  0  0  0  0  0
    0.4372   -2.8702    0.4880 C   0  0  0  0  0  0  0  0  0  0  0  0
   -1.5102    1.4978    0.1699 C   0  0  0  0  0  0  0  0  0  0  0  0
    5.3794    1.1371   -1.0802 C   0  0  0  0  0  0  0  0  0  0  0  0
   -2.4943    1.8449    1.1043 C   0  0  0  0  0  0  0  0  0  0  0  0
   -2.0692    2.2189    2.4931 C   0  0  0  0  0  0  0  0  0  0  0  0
   -0.7308    2.9432    2.4318 C   0  0  0  0  0  0  0  0  0  0  0  0
   -1.8664    1.1174   -1.1253 C   0  0  0  0  0  0  0  0  0  0  0  0
   -3.8426    1.7834    0.7415 C   0  0  0  0  0  0  0  0  0  0  0  0
   -1.9745   -3.1738    0.9886 C   0  0  0  0  0  0  0  0  0  0  0  0
   -3.2145    1.0744   -1.4832 C   0  0  0  0  0  0  0  0  0  0  0  0
   -4.2002    1.4033   -0.5522 C   0  0  0  0  0  0  0  0  0  0  0  0
   -2.8079   -2.6454   -0.1727 C   0  0  0  0  0  0  0  0  0  0  0  0
   -4.1370   -3.3724   -0.3215 C   0  0  0  0  0  0  0  0  0  0  0  0
   -4.9641    0.6949   -3.0486 C   0  0  0  0  0  0  0  0  0  0  0  0
    2.3275    1.1398    1.4901 H   0  0  0  0  0  0  0  0  0  0  0  0
    4.1620   -0.1188    0.8326 H   0  0  0  0  0  0  0  0  0  0  0  0
    4.3186   -1.5164   -1.1934 H   0  0  0  0  0  0  0  0  0  0  0  0
    2.6599   -1.1166   -1.6275 H   0  0  0  0  0  0  0  0  0  0  0  0
    0.7255   -0.6830    2.1246 H   0  0  0  0  0  0  0  0  0  0  0  0
    2.3997   -1.1030    2.3473 H   0  0  0  0  0  0  0  0  0  0  0  0
    3.5604   -2.6592    0.8641 H   0  0  0  0  0  0  0  0  0  0  0  0
    2.7328   -3.3131   -0.5506 H   0  0  0  0  0  0  0  0  0  0  0  0
    0.5231   -0.0460   -0.6939 H   0  0  0  0  0  0  0  0  0  0  0  0
    1.3118    1.5198   -0.9069 H   0  0  0  0  0  0  0  0  0  0  0  0
    3.3879    1.2043   -1.8051 H   0  0  0  0  0  0  0  0  0  0  0  0
    3.7013    2.1572   -0.3287 H   0  0  0  0  0  0  0  0  0  0  0  0
   -2.8127    2.8688    2.9680 H   0  0  0  0  0  0  0  0  0  0  0  0
   -1.9832    1.3048    3.0928 H   0  0  0  0  0  0  0  0  0  0  0  0
   -0.8401    3.9304    1.9653 H   0  0  0  0  0  0  0  0  0  0  0  0
   -0.3668    3.1107    3.4513 H   0  0  0  0  0  0  0  0  0  0  0  0
   -0.7571   -1.6184    1.6861 H   0  0  0  0  0  0  0  0  0  0  0  0
   -1.1187    0.8672   -1.8717 H   0  0  0  0  0  0  0  0  0  0  0  0
   -4.6184    2.0314    1.4609 H   0  0  0  0  0  0  0  0  0  0  0  0
   -1.7712   -4.2422    0.8558 H   0  0  0  0  0  0  0  0  0  0  0  0
   -2.5205   -3.0525    1.9305 H   0  0  0  0  0  0  0  0  0  0  0  0
    6.7274    2.1709   -2.0357 H   0  0  0  0  0  0  0  0  0  0  0  0
   -5.2635    1.3834   -0.7656 H   0  0  0  0  0  0  0  0  0  0  0  0
   -2.2425   -2.7297   -1.1083 H   0  0  0  0  0  0  0  0  0  0  0  0
   -3.0037   -1.5792   -0.0192 H   0  0  0  0  0  0  0  0  0  0  0  0
   -4.7051   -2.9553   -1.1589 H   0  0  0  0  0  0  0  0  0  0  0  0
   -4.7416   -3.2703    0.5852 H   0  0  0  0  0  0  0  0  0  0  0  0
   -3.9794   -4.4385   -0.5126 H   0  0  0  0  0  0  0  0  0  0  0  0
   -5.4953   -0.0503   -2.4466 H   0  0  0  0  0  0  0  0  0  0  0  0
   -5.4087    1.6923   -2.9634 H   0  0  0  0  0  0  0  0  0  0  0  0
   -5.0643    0.3893   -4.0952 H   0  0  0  0  0  0  0  0  0  0  0  0
  1 16  2  0  0  0  0
  2 18  1  0  0  0  0
  2 51  1  0  0  0  0
  3 18  2  0  0  0  0
  4 25  1  0  0  0  0
  4 29  1  0  0  0  0
  5 11  1  0  0  0  0
  5 12  1  0  0  0  0
  5 16  1  0  0  0  0
  6 15  2  0  0  0  0
  6 21  1  0  0  0  0
  7 16  1  0  0  0  0
  7 24  1  0  0  0  0
  7 46  1  0  0  0  0
  8  9  1  0  0  0  0
  8 11  1  0  0  0  0
  8 13  1  0  0  0  0
  8 30  1  0  0  0  0
  9 10  1  0  0  0  0
  9 14  1  0  0  0  0
  9 31  1  0  0  0  0
 10 12  1  0  0  0  0
 10 32  1  0  0  0  0
 10 33  1  0  0  0  0
 11 34  1  0  0  0  0
 11 35  1  0  0  0  0
 12 36  1  0  0  0  0
 12 37  1  0  0  0  0
 13 15  1  0  0  0  0
 13 38  1  0  0  0  0
 13 39  1  0  0  0  0
 14 18  1  0  0  0  0
 14 40  1  0  0  0  0
 14 41  1  0  0  0  0
 15 17  1  0  0  0  0
 17 19  2  0  0  0  0
 17 22  1  0  0  0  0
 19 20  1  0  0  0  0
 19 23  1  0  0  0  0
 20 21  1  0  0  0  0
 20 42  1  0  0  0  0
 20 43  1  0  0  0  0
 21 44  1  0  0  0  0
 21 45  1  0  0  0  0
 22 25  2  0  0  0  0
 22 47  1  0  0  0  0
 23 26  2  0  0  0  0
 23 48  1  0  0  0  0
 24 27  1  0  0  0  0
 24 49  1  0  0  0  0
 24 50  1  0  0  0  0
 25 26  1  0  0  0  0
 26 52  1  0  0  0  0
 27 28  1  0  0  0  0
 27 53  1  0  0  0  0
 27 54  1  0  0  0  0
 28 55  1  0  0  0  0
 28 56  1  0  0  0  0
 28 57  1  0  0  0  0
 29 58  1  0  0  0  0
 29 59  1  0  0  0  0
 29 60  1  0  0  0  0
M  END
> <PUBCHEM_COMPOUND_CID>
51136684

> <PUBCHEM_CONFORMER_RMSD>
1

> <PUBCHEM_CONFORMER_DIVERSEORDER>
2
10
27
72
69
46
85
64
15
59
67
22
79
82
83
36
5
25
13
60
29
4
44
61
80
53
38
14
47
51
16
84
17
55
41
45
30
65
37
19
12
28
40
78
42
54
57
23
31
52
11
70
73
63
50
58
75
49
7
66
43
6
74
35
48
8
76
3
9
71
1
39
68
32
18
62
24
20
56
21
33
81
26
34
77

> <PUBCHEM_MMFF94_PARTIAL_CHARGES>
29
1 -0.57
11 0.3
12 0.3
13 0.06
14 0.06
15 0.3
16 0.69
17 0.09
18 0.66
19 -0.14
2 -0.65
20 0.14
21 0.25
22 -0.15
23 -0.15
24 0.3
25 0.08
26 -0.15
29 0.28
3 -0.57
4 -0.36
46 0.37
47 0.15
48 0.15
5 -0.66
51 0.5
52 0.15
6 -0.7
7 -0.73

> <PUBCHEM_EFFECTIVE_ROTOR_COUNT>
10.6

> <PUBCHEM_PHARMACOPHORE_FEATURES>
11
1 1 acceptor
1 2 acceptor
1 28 hydrophobe
1 3 acceptor
1 4 acceptor
1 6 acceptor
1 7 donor
3 2 3 18 anion
6 17 19 22 23 25 26 rings
6 5 8 9 10 11 12 rings
6 6 15 17 19 20 21 rings

> <PUBCHEM_HEAVY_ATOM_COUNT>
29

> <PUBCHEM_ATOM_DEF_STEREO_COUNT>
2

> <PUBCHEM_ATOM_UDEF_STEREO_COUNT>
0

> <PUBCHEM_BOND_DEF_STEREO_COUNT>
0

> <PUBCHEM_BOND_UDEF_STEREO_COUNT>
0

> <PUBCHEM_ISOTOPIC_ATOM_COUNT>
0

> <PUBCHEM_COMPONENT_COUNT>
1

> <PUBCHEM_CACTVS_TAUTO_COUNT>
2

> <PUBCHEM_CONFORMER_ID>
030C48AC00000002

> <PUBCHEM_MMFF94_ENERGY>
70.6411

> <PUBCHEM_FEATURE_SELFOVERLAP>
55.904

> <PUBCHEM_SHAPE_FINGERPRINT>
11582403 64 16588568847411597988
12788726 201 18195257826514060690
13583140 156 16878235177697288816
13631057 29 18340208616823480239
13911987 19 18115325444093401276
13947920 24 18043247053247974806
14114206 34 18129930201131342805
14251757 5 18265903642630806298
14395042 70 14686148582307442315
14468879 13 17096366133858486557
14931854 50 18340757187822519999
15537594 2 17988923328100262433
17138139 8 18127948945317218079
17492 54 18262503832803156447
21236236 1 18336274547672437502
22182313 1 17984977352803938944
23536364 44 18342460382383026142
238 59 17753315479410913615
27425 322 17841184115044697760
4409770 3 18339367490908720986
469060 322 17314813960122639787
5171179 24 17771348853001760856
59755656 520 18336842913431971612
7237137 82 18264498449874962908

> <PUBCHEM_SHAPE_MULTIPOLES>
558.39
10.12
4.43
2.29
9.17
4.26
0.69
-3.28
7.97
-2.36
-1.81
-2.23
-1.72
-1.17

> <PUBCHEM_SHAPE_SELFOVERLAP>
1162.883

> <PUBCHEM_SHAPE_VOLUME>
314.6

> <PUBCHEM_COORDINATE_TYPE>
2
5
10

$$$$
