51137045
  -OEChem-12032416393D

 44 47  0     1  0  0  0  0  0999 V2000
    6.7632    2.0609    1.0935 Cl  0  0  0  0  0  0  0  0  0  0  0  0
    2.4540   -1.1370   -1.1184 O   0  0  0  0  0  0  0  0  0  0  0  0
   -2.1344   -0.9470   -0.0152 N   0  0  1  0  0  0  0  0  0  0  0  0
   -5.9893    0.8169   -0.3181 N   0  0  0  0  0  0  0  0  0  0  0  0
    1.9335    0.0894    0.7151 N   0  0  0  0  0  0  0  0  0  0  0  0
   -3.2269   -0.0003    0.1967 C   0  0  0  0  0  0  0  0  0  0  0  0
    0.1460   -1.3636   -0.3702 C   0  0  2  0  0  0  0  0  0  0  0  0
   -0.9485   -0.3112   -0.5932 C   0  0  0  0  0  0  0  0  0  0  0  0
   -1.6685   -1.5487    1.2342 C   0  0  0  0  0  0  0  0  0  0  0  0
   -0.3477   -2.1907    0.8296 C   0  0  0  0  0  0  0  0  0  0  0  0
   -3.6550    0.6472   -1.1236 C   0  0  0  0  0  0  0  0  0  0  0  0
   -4.4216   -0.7060    0.8435 C   0  0  0  0  0  0  0  0  0  0  0  0
   -4.8706    1.5553   -0.9204 C   0  0  0  0  0  0  0  0  0  0  0  0
   -5.6120    0.2465    0.9826 C   0  0  0  0  0  0  0  0  0  0  0  0
    1.5202   -0.7579   -0.2015 C   0  0  0  0  0  0  0  0  0  0  0  0
   -7.1582    1.6846   -0.1768 C   0  0  0  0  0  0  0  0  0  0  0  0
    3.2514    0.2944    0.3851 C   0  0  0  0  0  0  0  0  0  0  0  0
    3.5736   -0.4549   -0.7369 C   0  0  0  0  0  0  0  0  0  0  0  0
    4.2424    1.0919    0.9750 C   0  0  0  0  0  0  0  0  0  0  0  0
    4.8257   -0.4812   -1.3386 C   0  0  0  0  0  0  0  0  0  0  0  0
    5.5197    1.0915    0.3957 C   0  0  0  0  0  0  0  0  0  0  0  0
    5.8030    0.3198   -0.7380 C   0  0  0  0  0  0  0  0  0  0  0  0
   -2.8983    0.8009    0.8752 H   0  0  0  0  0  0  0  0  0  0  0  0
    0.1726   -2.0314   -1.2432 H   0  0  0  0  0  0  0  0  0  0  0  0
   -1.0598   -0.1102   -1.6641 H   0  0  0  0  0  0  0  0  0  0  0  0
   -0.7036    0.6312   -0.0854 H   0  0  0  0  0  0  0  0  0  0  0  0
   -1.4919   -0.7953    2.0126 H   0  0  0  0  0  0  0  0  0  0  0  0
   -2.3489   -2.3115    1.6248 H   0  0  0  0  0  0  0  0  0  0  0  0
   -0.5135   -3.2279    0.5123 H   0  0  0  0  0  0  0  0  0  0  0  0
    0.3595   -2.2080    1.6657 H   0  0  0  0  0  0  0  0  0  0  0  0
   -2.8499    1.2583   -1.5473 H   0  0  0  0  0  0  0  0  0  0  0  0
   -3.8988   -0.1251   -1.8657 H   0  0  0  0  0  0  0  0  0  0  0  0
   -4.7216   -1.5768    0.2448 H   0  0  0  0  0  0  0  0  0  0  0  0
   -4.1761   -1.0730    1.8464 H   0  0  0  0  0  0  0  0  0  0  0  0
   -5.1705    1.9475   -1.8999 H   0  0  0  0  0  0  0  0  0  0  0  0
   -4.5888    2.4149   -0.2978 H   0  0  0  0  0  0  0  0  0  0  0  0
   -5.3678    1.0397    1.7016 H   0  0  0  0  0  0  0  0  0  0  0  0
   -6.4552   -0.3198    1.3968 H   0  0  0  0  0  0  0  0  0  0  0  0
   -8.0085    1.1224    0.2250 H   0  0  0  0  0  0  0  0  0  0  0  0
   -6.9642    2.5366    0.4848 H   0  0  0  0  0  0  0  0  0  0  0  0
   -7.4715    2.0704   -1.1533 H   0  0  0  0  0  0  0  0  0  0  0  0
    4.0192    1.6889    1.8537 H   0  0  0  0  0  0  0  0  0  0  0  0
    5.0343   -1.0815   -2.2152 H   0  0  0  0  0  0  0  0  0  0  0  0
    6.8005    0.3331   -1.1730 H   0  0  0  0  0  0  0  0  0  0  0  0
  1 21  1  0  0  0  0
  2 15  1  0  0  0  0
  2 18  1  0  0  0  0
  3  6  1  0  0  0  0
  3  8  1  0  0  0  0
  3  9  1  0  0  0  0
  4 13  1  0  0  0  0
  4 14  1  0  0  0  0
  4 16  1  0  0  0  0
  5 15  2  0  0  0  0
  5 17  1  0  0  0  0
  6 11  1  0  0  0  0
  6 12  1  0  0  0  0
  6 23  1  0  0  0  0
  7  8  1  0  0  0  0
  7 10  1  0  0  0  0
  7 15  1  0  0  0  0
  7 24  1  0  0  0  0
  8 25  1  0  0  0  0
  8 26  1  0  0  0  0
  9 10  1  0  0  0  0
  9 27  1  0  0  0  0
  9 28  1  0  0  0  0
 10 29  1  0  0  0  0
 10 30  1  0  0  0  0
 11 13  1  0  0  0  0
 11 31  1  0  0  0  0
 11 32  1  0  0  0  0
 12 14  1  0  0  0  0
 12 33  1  0  0  0  0
 12 34  1  0  0  0  0
 13 35  1  0  0  0  0
 13 36  1  0  0  0  0
 14 37  1  0  0  0  0
 14 38  1  0  0  0  0
 16 39  1  0  0  0  0
 16 40  1  0  0  0  0
 16 41  1  0  0  0  0
 17 18  2  0  0  0  0
 17 19  1  0  0  0  0
 18 20  1  0  0  0  0
 19 21  2  0  0  0  0
 19 42  1  0  0  0  0
 20 22  2  0  0  0  0
 20 43  1  0  0  0  0
 21 22  1  0  0  0  0
 22 44  1  0  0  0  0
M  END
> <PUBCHEM_COMPOUND_CID>
51137045

> <PUBCHEM_CONFORMER_RMSD>
0.6

> <PUBCHEM_CONFORMER_DIVERSEORDER>
1
84
51
17
7
92
62
85
46
78
87
49
68
50
30
86
53
31
79
82
23
93
58
33
83
54
76
52
21
90
80
71
70
9
45
91
37
75
89
64
67
11
94
13
72
26
88
77
29
81
6
40
56
20
44
10
65
74
12
38
41
59
69
27
8
57
60
16
28
22
19
18
55
73
95
63
48
14
32
25
47
43
39
42
5
61
35
4
66
2
24
3
36
15
34

> <PUBCHEM_MMFF94_PARTIAL_CHARGES>
22
1 -0.18
13 0.27
14 0.27
15 0.3
16 0.27
17 0.23
18 0.14
19 -0.15
2 -0.28
20 -0.15
21 0.18
22 -0.15
3 -0.81
4 -0.81
42 0.15
43 0.15
44 0.15
5 -0.57
6 0.27
7 0.18
8 0.27
9 0.27

> <PUBCHEM_EFFECTIVE_ROTOR_COUNT>
4.2

> <PUBCHEM_PHARMACOPHORE_FEATURES>
6
1 3 cation
1 4 cation
5 2 5 15 17 18 rings
5 3 7 8 9 10 rings
6 17 18 19 20 21 22 rings
6 4 6 11 12 13 14 rings

> <PUBCHEM_HEAVY_ATOM_COUNT>
22

> <PUBCHEM_ATOM_DEF_STEREO_COUNT>
1

> <PUBCHEM_ATOM_UDEF_STEREO_COUNT>
0

> <PUBCHEM_BOND_DEF_STEREO_COUNT>
0

> <PUBCHEM_BOND_UDEF_STEREO_COUNT>
0

> <PUBCHEM_ISOTOPIC_ATOM_COUNT>
0

> <PUBCHEM_COMPONENT_COUNT>
1

> <PUBCHEM_CACTVS_TAUTO_COUNT>
1

> <PUBCHEM_CONFORMER_ID>
030C4A1500000001

> <PUBCHEM_MMFF94_ENERGY>
31.1944

> <PUBCHEM_FEATURE_SELFOVERLAP>
30.567

> <PUBCHEM_SHAPE_FINGERPRINT>
10 15 17676492773566055561
10354089 29 16081092571574036878
10692045 39 17968645013716688570
11646440 116 18409740555754958689
12236239 1 16008753532239248598
12403259 415 18411426119643214811
12596602 18 15285362829461395717
12616971 3 15357697526225674734
12633257 1 14634876352879086619
12730499 353 18343027670248544374
12778500 126 18187070751554388360
12838862 33 17749097878326330453
12969540 114 18273206491577606415
13288520 33 11167941355853280571
13402501 40 18411416219691161816
13533116 47 18261954029750559202
13668630 136 9655571916425153189
13685833 64 8502370040457922741
13862211 1 11455888044729708365
14123256 34 10519983785800467957
14251764 18 15864077589644894627
14341114 176 12901547948984810286
14341114 328 16081092567073327921
14556957 393 15554459525472342424
15003188 100 18059569238938202689
15183329 4 15841554067600078045
15238133 3 17749111114856243780
15716309 27 12829489251092729865
16079462 125 18342736347312204936
18222031 100 11455890273912907634
200 152 15770062730656363018
20157964 124 17846782897272678238
2026 5 9942993052394186796
20281389 69 18260827085665178560
20374829 77 11743838049795778215
20645477 56 18408042922601898911
20645477 70 17632589232094896998
21033648 29 18335702766743918954
21150785 3 16486969618040035349
221357 26 17489307451667007680
22224240 67 17967814942862164355
23198884 109 16988844969414548101
23402655 69 17346598595124361798
23522609 53 8501527943021212182
23559900 14 18261403222038909910
249999 5 17968654887409028795
2838139 119 18272080578575007981
2916195 48 18410291436475121083
293599 30 18334859411266113119
29717793 49 15554458383791431188
3004659 81 12967126125083991154
314173 85 10015865388130308399
3663271 9 15430043179129752973
465052 167 11314026868591849584
5104073 3 17604715435630653001
5385378 56 18041278751420198835
543368 44 18131349701049957361
5718773 13 9366804965951918964
59682541 35 18114192939148674033
59682541 52 17346325851826583974
5969126 39 18195525029446964799
59755656 520 18187359934995737311

> <PUBCHEM_SHAPE_MULTIPOLES>
433.81
18.26
1.82
1.24
3.84
0.02
0.01
13.16
-0.73
0.18
-0.35
-0.49
-0.02
2.21

> <PUBCHEM_SHAPE_SELFOVERLAP>
924.429

> <PUBCHEM_SHAPE_VOLUME>
244.4

> <PUBCHEM_COORDINATE_TYPE>
2
5
10

$$$$
