11912190
  -OEChem-12032416123D

 62 68  0     1  0  0  0  0  0999 V2000
    3.8175    2.9063   -1.1621 S   0  0  0  0  0  0  0  0  0  0  0  0
   -0.1608    2.2457    1.3839 O   0  0  0  0  0  0  0  0  0  0  0  0
    2.1578    0.3206    2.1933 O   0  0  0  0  0  0  0  0  0  0  0  0
    4.7595    3.6219   -0.3230 O   0  0  0  0  0  0  0  0  0  0  0  0
    3.6482    3.2810   -2.5528 O   0  0  0  0  0  0  0  0  0  0  0  0
   -8.2835   -0.5787   -0.4657 O   0  0  0  0  0  0  0  0  0  0  0  0
   -7.9443    1.8052   -0.3684 O   0  0  0  0  0  0  0  0  0  0  0  0
    2.2944    2.8856   -0.4115 N   0  0  0  0  0  0  0  0  0  0  0  0
   -0.2193   -1.4006    1.2107 N   0  0  0  0  0  0  0  0  0  0  0  0
   -2.4137   -1.0252    0.4692 N   0  0  0  0  0  0  0  0  0  0  0  0
   -1.2564   -3.0677   -0.0745 N   0  0  0  0  0  0  0  0  0  0  0  0
    1.7736    0.9309    0.9500 C   0  0  1  0  0  0  0  0  0  0  0  0
    0.2581    0.9552    0.9086 C   0  0  1  0  0  0  0  0  0  0  0  0
    2.1655    2.3908    0.9378 C   0  0  2  0  0  0  0  0  0  0  0  0
   -0.1555   -0.1217    1.8836 C   0  0  2  0  0  0  0  0  0  0  0  0
    0.9991    3.0463    1.6554 C   0  0  0  0  0  0  0  0  0  0  0  0
    0.9805   -0.1140    2.8898 C   0  0  0  0  0  0  0  0  0  0  0  0
   -1.3294   -1.8443    0.5142 C   0  0  0  0  0  0  0  0  0  0  0  0
    4.2585    1.1946   -1.1397 C   0  0  0  0  0  0  0  0  0  0  0  0
    4.9556    0.6906   -0.0549 C   0  0  0  0  0  0  0  0  0  0  0  0
    3.8995    0.3925   -2.2049 C   0  0  0  0  0  0  0  0  0  0  0  0
    5.3140   -0.6669   -0.0223 C   0  0  0  0  0  0  0  0  0  0  0  0
   -3.4781   -1.4891   -0.2179 C   0  0  0  0  0  0  0  0  0  0  0  0
    4.2469   -0.9587   -2.1890 C   0  0  0  0  0  0  0  0  0  0  0  0
    4.9542   -1.5040   -1.1052 C   0  0  0  0  0  0  0  0  0  0  0  0
   -2.3564   -3.4690   -0.7449 C   0  0  0  0  0  0  0  0  0  0  0  0
   -3.5069   -2.7147   -0.8514 C   0  0  0  0  0  0  0  0  0  0  0  0
   -4.6174   -0.6037   -0.2541 C   0  0  0  0  0  0  0  0  0  0  0  0
    6.0210   -1.2122    1.0618 C   0  0  0  0  0  0  0  0  0  0  0  0
    5.3127   -2.8616   -1.0725 C   0  0  0  0  0  0  0  0  0  0  0  0
    6.3689   -2.5632    1.0777 C   0  0  0  0  0  0  0  0  0  0  0  0
   -5.9091   -1.1330   -0.3455 C   0  0  0  0  0  0  0  0  0  0  0  0
    6.0156   -3.3862    0.0125 C   0  0  0  0  0  0  0  0  0  0  0  0
   -4.4227    0.7896   -0.1976 C   0  0  0  0  0  0  0  0  0  0  0  0
   -6.9666   -0.2472   -0.3776 C   0  0  0  0  0  0  0  0  0  0  0  0
   -6.7729    1.1141   -0.3222 C   0  0  0  0  0  0  0  0  0  0  0  0
   -5.5110    1.6647   -0.2316 C   0  0  0  0  0  0  0  0  0  0  0  0
   -8.8972    0.7265   -0.4588 C   0  0  0  0  0  0  0  0  0  0  0  0
    2.1694    0.3090    0.1479 H   0  0  0  0  0  0  0  0  0  0  0  0
   -0.1412    0.8385   -0.1041 H   0  0  0  0  0  0  0  0  0  0  0  0
    3.0809    2.5920    1.5039 H   0  0  0  0  0  0  0  0  0  0  0  0
   -1.0970    0.0908    2.4030 H   0  0  0  0  0  0  0  0  0  0  0  0
    1.1512    3.0421    2.7404 H   0  0  0  0  0  0  0  0  0  0  0  0
    0.8092    4.0761    1.3377 H   0  0  0  0  0  0  0  0  0  0  0  0
    1.1724   -1.0873    3.3521 H   0  0  0  0  0  0  0  0  0  0  0  0
    0.7907    0.6126    3.6876 H   0  0  0  0  0  0  0  0  0  0  0  0
    1.4541    2.8586   -1.0021 H   0  0  0  0  0  0  0  0  0  0  0  0
    0.6014   -1.9954    1.1925 H   0  0  0  0  0  0  0  0  0  0  0  0
    5.2280    1.3343    0.7781 H   0  0  0  0  0  0  0  0  0  0  0  0
    3.3452    0.7797   -3.0541 H   0  0  0  0  0  0  0  0  0  0  0  0
    3.9581   -1.5842   -3.0312 H   0  0  0  0  0  0  0  0  0  0  0  0
   -2.2823   -4.4439   -1.2147 H   0  0  0  0  0  0  0  0  0  0  0  0
   -4.3452   -3.0883   -1.4252 H   0  0  0  0  0  0  0  0  0  0  0  0
    6.3071   -0.5876    1.9055 H   0  0  0  0  0  0  0  0  0  0  0  0
    5.0466   -3.5236   -1.8940 H   0  0  0  0  0  0  0  0  0  0  0  0
    6.9157   -2.9724    1.9221 H   0  0  0  0  0  0  0  0  0  0  0  0
   -6.1128   -2.1982   -0.3688 H   0  0  0  0  0  0  0  0  0  0  0  0
   -3.4253    1.2204   -0.1375 H   0  0  0  0  0  0  0  0  0  0  0  0
    6.2866   -4.4378    0.0255 H   0  0  0  0  0  0  0  0  0  0  0  0
   -5.3628    2.7378   -0.1908 H   0  0  0  0  0  0  0  0  0  0  0  0
   -9.4769    0.8467   -1.3813 H   0  0  0  0  0  0  0  0  0  0  0  0
   -9.5799    0.7887    0.3964 H   0  0  0  0  0  0  0  0  0  0  0  0
  1  4  2  0  0  0  0
  1  5  2  0  0  0  0
  1  8  1  0  0  0  0
  1 19  1  0  0  0  0
  2 13  1  0  0  0  0
  2 16  1  0  0  0  0
  3 12  1  0  0  0  0
  3 17  1  0  0  0  0
  6 35  1  0  0  0  0
  6 38  1  0  0  0  0
  7 36  1  0  0  0  0
  7 38  1  0  0  0  0
  8 14  1  0  0  0  0
  8 47  1  0  0  0  0
  9 15  1  0  0  0  0
  9 18  1  0  0  0  0
  9 48  1  0  0  0  0
 10 18  1  0  0  0  0
 10 23  2  0  0  0  0
 11 18  2  0  0  0  0
 11 26  1  0  0  0  0
 12 13  1  0  0  0  0
 12 14  1  0  0  0  0
 12 39  1  0  0  0  0
 13 15  1  0  0  0  0
 13 40  1  0  0  0  0
 14 16  1  0  0  0  0
 14 41  1  0  0  0  0
 15 17  1  0  0  0  0
 15 42  1  0  0  0  0
 16 43  1  0  0  0  0
 16 44  1  0  0  0  0
 17 45  1  0  0  0  0
 17 46  1  0  0  0  0
 19 20  2  0  0  0  0
 19 21  1  0  0  0  0
 20 22  1  0  0  0  0
 20 49  1  0  0  0  0
 21 24  2  0  0  0  0
 21 50  1  0  0  0  0
 22 25  1  0  0  0  0
 22 29  2  0  0  0  0
 23 27  1  0  0  0  0
 23 28  1  0  0  0  0
 24 25  1  0  0  0  0
 24 51  1  0  0  0  0
 25 30  2  0  0  0  0
 26 27  2  0  0  0  0
 26 52  1  0  0  0  0
 27 53  1  0  0  0  0
 28 32  2  0  0  0  0
 28 34  1  0  0  0  0
 29 31  1  0  0  0  0
 29 54  1  0  0  0  0
 30 33  1  0  0  0  0
 30 55  1  0  0  0  0
 31 33  2  0  0  0  0
 31 56  1  0  0  0  0
 32 35  1  0  0  0  0
 32 57  1  0  0  0  0
 33 59  1  0  0  0  0
 34 37  2  0  0  0  0
 34 58  1  0  0  0  0
 35 36  2  0  0  0  0
 36 37  1  0  0  0  0
 37 60  1  0  0  0  0
 38 61  1  0  0  0  0
 38 62  1  0  0  0  0
M  END
> <PUBCHEM_COMPOUND_CID>
11912190

> <PUBCHEM_CONFORMER_RMSD>
1.4

> <PUBCHEM_CONFORMER_DIVERSEORDER>
1
148
212
112
100
203
129
88
39
268
149
171
210
262
176
219
160
50
245
71
15
65
251
280
256
300
97
182
137
239
169
62
133
235
32
132
208
76
41
257
202
114
165
70
201
195
277
271
47
115
263
23
229
282
69
260
7
98
206
295
192
186
286
17
278
299
178
246
305
34
264
187
269
78
46
214
74
168
81
139
213
45
173
136
270
26
127
162
79
307
190
197
237
285
142
103
199
232
220
252
113
194
75
221
89
193
248
234
118
306
60
274
20
207
175
231
226
266
158
66
29
119
273
152
124
126
298
205
36
224
272
82
164
140
174
30
91
292
35
216
200
240
77
122
9
289
294
16
53
94
141
108
218
11
117
55
291
196
31
288
161
67
38
177
128
189
121
147
28
241
92
276
68
236
253
51
146
238
290
287
135
279
180
5
309
302
44
105
211
145
281
13
304
54
107
6
261
93
159
22
255
120
86
247
170
228
40
2
123
156
116
72
99
84
52
249
48
125
150
73
181
198
179
95
85
254
184
151
250
37
8
49
166
296
134
308
157
293
58
183
83
243
188
223
19
204
267
101
21
24
230
109
27
56
130
227
90
259
303
110
102
111
153
284
59
87
258
25
80
10
222
275
12
63
191
131
265
42
225
96
217
209
43
233
14
144
143
57
297
138
301
61
167
283
163
106
33
215
4
18
244
172
185
155
64
3
104
242
154

> <PUBCHEM_MMFF94_PARTIAL_CHARGES>
49
1 1.45
10 -0.62
11 -0.62
12 0.28
13 0.28
14 0.36
15 0.37
16 0.28
17 0.28
18 0.72
19 -0.01
2 -0.56
20 -0.15
21 -0.15
23 0.31
24 -0.15
26 0.16
27 -0.15
29 -0.15
3 -0.56
30 -0.15
31 -0.15
32 -0.15
33 -0.15
34 -0.15
35 0.08
36 0.08
37 -0.15
38 0.56
4 -0.65
47 0.42
48 0.4
49 0.15
5 -0.65
50 0.15
51 0.15
52 0.15
53 0.15
54 0.15
55 0.15
56 0.15
57 0.15
58 0.15
59 0.15
6 -0.36
60 0.15
7 -0.36
8 -0.91
9 -0.87

> <PUBCHEM_EFFECTIVE_ROTOR_COUNT>
7.8

> <PUBCHEM_PHARMACOPHORE_FEATURES>
17
1 10 acceptor
1 2 acceptor
1 3 acceptor
1 4 acceptor
1 5 acceptor
1 6 acceptor
1 7 acceptor
1 8 donor
1 9 donor
4 9 10 11 18 cation
5 2 12 13 14 16 rings
5 3 12 13 15 17 rings
5 6 7 35 36 38 rings
6 10 11 18 23 26 27 rings
6 19 20 21 22 24 25 rings
6 22 25 29 30 31 33 rings
6 28 32 34 35 36 37 rings

> <PUBCHEM_HEAVY_ATOM_COUNT>
38

> <PUBCHEM_ATOM_DEF_STEREO_COUNT>
4

> <PUBCHEM_ATOM_UDEF_STEREO_COUNT>
0

> <PUBCHEM_BOND_DEF_STEREO_COUNT>
0

> <PUBCHEM_BOND_UDEF_STEREO_COUNT>
0

> <PUBCHEM_ISOTOPIC_ATOM_COUNT>
0

> <PUBCHEM_COMPONENT_COUNT>
1

> <PUBCHEM_CACTVS_TAUTO_COUNT>
3

> <PUBCHEM_CONFORMER_ID>
00B5C3FE00000001

> <PUBCHEM_MMFF94_ENERGY>
104.1587

> <PUBCHEM_FEATURE_SELFOVERLAP>
87.186

> <PUBCHEM_SHAPE_FINGERPRINT>
10258939 38 12535351155942186107
10483366 6 18341898433220463619
10675989 125 18335137626942882064
10974685 15 17119445235392306516
11607047 403 10519984872622723468
11720765 8 18273494598095287128
11828532 37 18337959004013422215
12120059 20 12829501367897001945
12144600 37 18188215402983146019
12373685 5 15266477643733623365
12728209 76 17894908555538734253
13636023 51 17345734405108246890
13782708 43 17273694463476108463
13947947 73 18335139765283026534
14068700 675 18268714922960766178
14068700 686 10809608295773559963
14117953 113 18272657805780859342
14289585 56 17386287567151992941
14840074 17 17676481792305423205
15001296 14 17604430833586038989
15183329 4 18201446882476156585
15336146 87 16298650730012674061
15781502 645 16487246638845478002
19309040 13 16663206029173222494
19315092 285 13253974325136688478
20715895 44 18411704279190172230
21362857 166 17630303442094674175
21458453 9 8214131976298901469
21814621 53 17822302313545257699
23559900 14 18059283349347061115
24893992 56 18412544306849278791
27425 322 17677617642638341509
3004659 81 18412832391352987606
3459 83 18411424985687316464
38570 142 17967252022746667625
4066623 53 18411697660392777100
437795 51 13984670230482910383
4394409 98 18341332197575337318
4918855 1 17313378964003439621
5223283 242 17530969064256456492
613672 6 15339125687947342883
6443934 186 9439404626999222742
6523845 18 15647048261734063546
9862260 156 18411697655996907443

> <PUBCHEM_SHAPE_MULTIPOLES>
730.73
21.47
4.28
1.95
36.41
0.32
-0.3
-3.17
6.81
-5.22
0.83
-2.9
0.67
-1.22

> <PUBCHEM_SHAPE_SELFOVERLAP>
1631.848

> <PUBCHEM_SHAPE_VOLUME>
390.7

> <PUBCHEM_COORDINATE_TYPE>
2
5
10

$$$$
