7049286
  -OEChem-12032416153D

 62 64  0     1  0  0  0  0  0999 V2000
   -5.5935    1.3964    2.0034 F   0  0  0  0  0  0  0  0  0  0  0  0
   -7.8633   -1.7767   -0.6731 F   0  0  0  0  0  0  0  0  0  0  0  0
    0.1903    4.3157    1.2636 O   0  0  0  0  0  0  0  0  0  0  0  0
    2.1527    4.1063   -1.8166 O   0  0  0  0  0  0  0  0  0  0  0  0
    3.1385    0.4723    2.1109 O   0  0  0  0  0  0  0  0  0  0  0  0
   -1.9647    0.7548   -1.4642 O   0  0  0  0  0  0  0  0  0  0  0  0
    6.2812    0.2906   -1.2354 O   0  0  0  0  0  0  0  0  0  0  0  0
   -0.8520   -4.0971    0.6320 O   0  0  0  0  0  0  0  0  0  0  0  0
   -1.3165    2.2828    0.1451 N   0  0  0  0  0  0  0  0  0  0  0  0
    3.7796    0.1392   -0.1056 N   0  0  0  0  0  0  0  0  0  0  0  0
   -3.3910    1.3123    0.3150 N   0  0  0  0  0  0  0  0  0  0  0  0
    7.0773   -0.9615    0.5182 N   0  0  0  0  0  0  0  0  0  0  0  0
    0.4263    4.0120   -0.1129 C   0  0  1  0  0  0  0  0  0  0  0  0
    1.9156    4.2192   -0.4149 C   0  0  1  0  0  0  0  0  0  0  0  0
   -0.0135    2.5648   -0.4058 C   0  0  1  0  0  0  0  0  0  0  0  0
    2.8055    3.2263    0.3524 C   0  0  0  0  0  0  0  0  0  0  0  0
    2.2191    1.8459    0.4414 C   0  0  0  0  0  0  0  0  0  0  0  0
    0.9606    1.5339    0.0970 C   0  0  0  0  0  0  0  0  0  0  0  0
    3.0806    0.7589    0.9156 C   0  0  0  0  0  0  0  0  0  0  0  0
    4.6939   -0.9580    0.1161 C   0  0  1  0  0  0  0  0  0  0  0  0
   -2.2144    1.3799   -0.4364 C   0  0  0  0  0  0  0  0  0  0  0  0
    4.3009   -2.2092   -0.6775 C   0  0  0  0  0  0  0  0  0  0  0  0
    2.9224   -2.7139   -0.3269 C   0  0  0  0  0  0  0  0  0  0  0  0
    6.0772   -0.4793   -0.2997 C   0  0  0  0  0  0  0  0  0  0  0  0
    2.7770   -3.6392    0.6944 C   0  0  0  0  0  0  0  0  0  0  0  0
    1.8269   -2.2434   -1.0336 C   0  0  0  0  0  0  0  0  0  0  0  0
   -4.5371    0.5222    0.0641 C   0  0  0  0  0  0  0  0  0  0  0  0
    1.5029   -4.1061    1.0177 C   0  0  0  0  0  0  0  0  0  0  0  0
    0.5530   -2.7103   -0.7103 C   0  0  0  0  0  0  0  0  0  0  0  0
    0.3909   -3.6417    0.3152 C   0  0  0  0  0  0  0  0  0  0  0  0
   -5.6158    0.5927    0.9304 C   0  0  0  0  0  0  0  0  0  0  0  0
   -4.5562   -0.3071   -1.0457 C   0  0  0  0  0  0  0  0  0  0  0  0
   -6.7446   -0.1874    0.6804 C   0  0  0  0  0  0  0  0  0  0  0  0
   -5.6852   -1.0871   -1.2957 C   0  0  0  0  0  0  0  0  0  0  0  0
   -6.7794   -1.0274   -0.4327 C   0  0  0  0  0  0  0  0  0  0  0  0
   -1.9453   -3.5810   -0.1258 C   0  0  0  0  0  0  0  0  0  0  0  0
   -0.1834    4.7012   -0.7086 H   0  0  0  0  0  0  0  0  0  0  0  0
    2.2057    5.2358   -0.1226 H   0  0  0  0  0  0  0  0  0  0  0  0
   -0.0741    2.4340   -1.4941 H   0  0  0  0  0  0  0  0  0  0  0  0
    3.7923    3.1726   -0.1233 H   0  0  0  0  0  0  0  0  0  0  0  0
    2.9552    3.5937    1.3755 H   0  0  0  0  0  0  0  0  0  0  0  0
    0.6209    0.5028    0.1622 H   0  0  0  0  0  0  0  0  0  0  0  0
   -1.5613    2.6973    1.0394 H   0  0  0  0  0  0  0  0  0  0  0  0
    0.6158    3.6373    1.8132 H   0  0  0  0  0  0  0  0  0  0  0  0
    3.0954    4.2880   -1.9712 H   0  0  0  0  0  0  0  0  0  0  0  0
    4.7028   -1.1945    1.1873 H   0  0  0  0  0  0  0  0  0  0  0  0
    3.6744    0.4811   -1.0572 H   0  0  0  0  0  0  0  0  0  0  0  0
    4.3454   -2.0039   -1.7563 H   0  0  0  0  0  0  0  0  0  0  0  0
    5.0378   -3.0062   -0.5101 H   0  0  0  0  0  0  0  0  0  0  0  0
   -3.4392    1.8998    1.1438 H   0  0  0  0  0  0  0  0  0  0  0  0
    3.6369   -4.0047    1.2484 H   0  0  0  0  0  0  0  0  0  0  0  0
    1.9423   -1.5194   -1.8353 H   0  0  0  0  0  0  0  0  0  0  0  0
    6.8944   -1.5941    1.2905 H   0  0  0  0  0  0  0  0  0  0  0  0
    8.0464   -0.7060    0.3605 H   0  0  0  0  0  0  0  0  0  0  0  0
    1.3828   -4.8310    1.8182 H   0  0  0  0  0  0  0  0  0  0  0  0
   -0.2669   -2.3067   -1.2947 H   0  0  0  0  0  0  0  0  0  0  0  0
   -3.7518   -0.4113   -1.7585 H   0  0  0  0  0  0  0  0  0  0  0  0
   -7.5965   -0.1409    1.3521 H   0  0  0  0  0  0  0  0  0  0  0  0
   -5.7136   -1.7423   -2.1615 H   0  0  0  0  0  0  0  0  0  0  0  0
   -1.8673   -3.8551   -1.1833 H   0  0  0  0  0  0  0  0  0  0  0  0
   -2.8566   -4.0496    0.2599 H   0  0  0  0  0  0  0  0  0  0  0  0
   -2.0576   -2.5004    0.0152 H   0  0  0  0  0  0  0  0  0  0  0  0
  1 31  1  0  0  0  0
  2 35  1  0  0  0  0
  3 13  1  0  0  0  0
  3 44  1  0  0  0  0
  4 14  1  0  0  0  0
  4 45  1  0  0  0  0
  5 19  2  0  0  0  0
  6 21  2  0  0  0  0
  7 24  2  0  0  0  0
  8 30  1  0  0  0  0
  8 36  1  0  0  0  0
  9 15  1  0  0  0  0
  9 21  1  0  0  0  0
  9 43  1  0  0  0  0
 10 19  1  0  0  0  0
 10 20  1  0  0  0  0
 10 47  1  0  0  0  0
 11 21  1  0  0  0  0
 11 27  1  0  0  0  0
 11 50  1  0  0  0  0
 12 24  1  0  0  0  0
 12 53  1  0  0  0  0
 12 54  1  0  0  0  0
 13 14  1  0  0  0  0
 13 15  1  0  0  0  0
 13 37  1  0  0  0  0
 14 16  1  0  0  0  0
 14 38  1  0  0  0  0
 15 18  1  0  0  0  0
 15 39  1  0  0  0  0
 16 17  1  0  0  0  0
 16 40  1  0  0  0  0
 16 41  1  0  0  0  0
 17 18  2  0  0  0  0
 17 19  1  0  0  0  0
 18 42  1  0  0  0  0
 20 22  1  0  0  0  0
 20 24  1  0  0  0  0
 20 46  1  0  0  0  0
 22 23  1  0  0  0  0
 22 48  1  0  0  0  0
 22 49  1  0  0  0  0
 23 25  2  0  0  0  0
 23 26  1  0  0  0  0
 25 28  1  0  0  0  0
 25 51  1  0  0  0  0
 26 29  2  0  0  0  0
 26 52  1  0  0  0  0
 27 31  2  0  0  0  0
 27 32  1  0  0  0  0
 28 30  2  0  0  0  0
 28 55  1  0  0  0  0
 29 30  1  0  0  0  0
 29 56  1  0  0  0  0
 31 33  1  0  0  0  0
 32 34  2  0  0  0  0
 32 57  1  0  0  0  0
 33 35  2  0  0  0  0
 33 58  1  0  0  0  0
 34 35  1  0  0  0  0
 34 59  1  0  0  0  0
 36 60  1  0  0  0  0
 36 61  1  0  0  0  0
 36 62  1  0  0  0  0
M  END
> <PUBCHEM_COMPOUND_CID>
7049286

> <PUBCHEM_CONFORMER_RMSD>
1.2

> <PUBCHEM_CONFORMER_DIVERSEORDER>
1
73
75
210
122
60
205
141
189
110
70
190
159
53
214
105
95
153
223
51
81
175
219
4
201
22
146
166
107
188
78
164
173
98
138
9
99
74
54
79
227
147
145
19
226
197
220
28
211
45
101
207
195
113
85
135
162
35
102
132
136
171
163
59
104
204
11
133
165
49
21
116
120
83
61
172
206
18
180
229
176
34
119
91
32
221
199
142
212
192
196
63
130
40
14
154
42
178
149
109
17
96
64
200
48
144
80
216
186
152
170
43
181
44
150
140
169
193
68
187
184
90
92
55
139
126
174
123
38
76
86
121
84
114
208
209
30
151
16
118
82
228
6
143
97
29
108
179
112
93
69
183
27
217
222
103
50
161
46
20
191
137
125
88
5
124
10
167
215
13
12
160
157
156
148
224
194
57
177
213
128
7
185
39
131
36
129
134
71
31
168
77
67
100
8
203
3
115
24
94
202
47
127
33
117
52
56
37
232
218
106
225
89
158
26
198
72
182
2
231
23
87
155
111
15
58
66
25
62
65
230
41

> <PUBCHEM_MMFF94_PARTIAL_CHARGES>
51
1 -0.19
10 -0.73
11 -0.55
12 -0.8
13 0.28
14 0.28
15 0.44
16 0.14
17 -0.12
18 -0.29
19 0.62
2 -0.19
20 0.36
21 0.69
22 0.14
23 -0.14
24 0.57
25 -0.15
26 -0.15
27 0.12
28 -0.15
29 -0.15
3 -0.68
30 0.08
31 0.19
32 -0.15
33 -0.15
34 -0.15
35 0.19
36 0.28
4 -0.68
42 0.15
43 0.37
44 0.4
45 0.4
47 0.37
5 -0.57
50 0.37
51 0.15
52 0.15
53 0.37
54 0.37
55 0.15
56 0.15
57 0.15
58 0.15
59 0.15
6 -0.57
7 -0.57
8 -0.36
9 -0.73

> <PUBCHEM_EFFECTIVE_ROTOR_COUNT>
11.8

> <PUBCHEM_PHARMACOPHORE_FEATURES>
15
1 10 donor
1 11 donor
1 12 donor
1 3 acceptor
1 3 donor
1 4 acceptor
1 4 donor
1 5 acceptor
1 6 acceptor
1 7 acceptor
1 8 acceptor
1 9 donor
6 13 14 15 16 17 18 rings
6 23 25 26 28 29 30 rings
6 27 31 32 33 34 35 rings

> <PUBCHEM_HEAVY_ATOM_COUNT>
36

> <PUBCHEM_ATOM_DEF_STEREO_COUNT>
4

> <PUBCHEM_ATOM_UDEF_STEREO_COUNT>
0

> <PUBCHEM_BOND_DEF_STEREO_COUNT>
0

> <PUBCHEM_BOND_UDEF_STEREO_COUNT>
0

> <PUBCHEM_ISOTOPIC_ATOM_COUNT>
0

> <PUBCHEM_COMPONENT_COUNT>
1

> <PUBCHEM_CACTVS_TAUTO_COUNT>
12

> <PUBCHEM_CONFORMER_ID>
006B904600000001

> <PUBCHEM_MMFF94_ENERGY>
94.9502

> <PUBCHEM_FEATURE_SELFOVERLAP>
76.185

> <PUBCHEM_SHAPE_FINGERPRINT>
10316853 100 18410011065431982778
1100329 8 18338236067473118558
12107183 9 18127704742842798777
13383661 66 17558563404726935262
13402501 40 18410014312358797234
1361 2 18410009974457380073
14068700 675 18202003218169860840
14394314 77 18267308642835112857
14784336 7 17915448605882584409
15320467 1 18410573989816196755
15328829 1 17488440002329253989
15483637 11 17904762533133362115
15538507 32 18410859906464454980
15927050 60 17981044438192029372
16112460 7 18341049743229499225
20028762 73 18272367594191431919
20764821 26 18337394958115437734
21133410 62 18188755177018621415
21133410 90 17131269198395484554
3178227 256 18336274499868602393
3737641 26 18125161537332860350
373842 8 18266178525518675707
392239 28 18267021665720615227
463206 1 18412263960367181655
5309563 4 18339359652276563429
53794403 172 18263927811613557757
5776283 40 18265060305028851460
66674814 147 18412267228868800273
86090 222 17894919533701425027

> <PUBCHEM_SHAPE_MULTIPOLES>
671.18
15.7
6.45
1.28
19.24
1.04
-0.13
-5.51
0.46
-4.47
-0.32
0.29
0.3
-1.11

> <PUBCHEM_SHAPE_SELFOVERLAP>
1428.807

> <PUBCHEM_SHAPE_VOLUME>
372.4

> <PUBCHEM_COORDINATE_TYPE>
2
5
10

$$$$
