45783388
  -OEChem-12032416253D

 55 57  0     1  0  0  0  0  0999 V2000
   -0.1986   -0.2445    2.7037 O   0  0  0  0  0  0  0  0  0  0  0  0
    2.0239   -3.1856   -1.4792 O   0  0  0  0  0  0  0  0  0  0  0  0
   -2.9726   -0.3177    0.2192 N   0  0  1  0  0  0  0  0  0  0  0  0
   -0.1922    0.5358    0.6041 N   0  0  0  0  0  0  0  0  0  0  0  0
    1.0869    0.2657    2.4816 N   0  0  0  0  0  0  0  0  0  0  0  0
    2.8918   -0.8053   -0.2756 N   0  0  0  0  0  0  0  0  0  0  0  0
    4.1022    1.1532   -0.8217 N   0  0  0  0  0  0  0  0  0  0  0  0
   -2.3257   -0.5176    1.5314 C   0  0  1  0  0  0  0  0  0  0  0  0
   -2.4602   -2.0264    1.8080 C   0  0  0  0  0  0  0  0  0  0  0  0
   -3.9843   -1.3670    0.0930 C   0  0  0  0  0  0  0  0  0  0  0  0
   -3.5408    1.0142    0.0559 C   0  0  0  0  0  0  0  0  0  0  0  0
   -3.2480   -2.5784    0.6283 C   0  0  0  0  0  0  0  0  0  0  0  0
   -3.7064    1.4540   -1.4214 C   0  0  0  0  0  0  0  0  0  0  0  0
   -0.8868   -0.0460    1.5490 C   0  0  0  0  0  0  0  0  0  0  0  0
   -4.7033    0.4965   -2.1018 C   0  0  0  0  0  0  0  0  0  0  0  0
   -2.3680    1.3846   -2.1777 C   0  0  0  0  0  0  0  0  0  0  0  0
   -4.2633    2.8861   -1.5074 C   0  0  0  0  0  0  0  0  0  0  0  0
    1.0119    0.7076    1.2227 C   0  0  0  0  0  0  0  0  0  0  0  0
    2.1213    1.3235    0.5539 C   0  0  0  0  0  0  0  0  0  0  0  0
    3.0475    0.6009   -0.1811 C   0  0  0  0  0  0  0  0  0  0  0  0
    2.2882    2.7014    0.6366 C   0  0  0  0  0  0  0  0  0  0  0  0
    3.3610    3.3062   -0.0090 C   0  0  0  0  0  0  0  0  0  0  0  0
    3.7937   -1.6315   -1.0088 C   0  0  0  0  0  0  0  0  0  0  0  0
    4.2318    2.4950   -0.7186 C   0  0  0  0  0  0  0  0  0  0  0  0
    3.3386   -3.0797   -0.9478 C   0  0  0  0  0  0  0  0  0  0  0  0
    1.5515   -4.5250   -1.4374 C   0  0  0  0  0  0  0  0  0  0  0  0
   -2.8714    0.0221    2.3182 H   0  0  0  0  0  0  0  0  0  0  0  0
   -1.5029   -2.5490    1.9098 H   0  0  0  0  0  0  0  0  0  0  0  0
   -3.0284   -2.1817    2.7332 H   0  0  0  0  0  0  0  0  0  0  0  0
   -4.8693   -1.1656    0.7099 H   0  0  0  0  0  0  0  0  0  0  0  0
   -4.3019   -1.6096   -0.9173 H   0  0  0  0  0  0  0  0  0  0  0  0
   -4.4921    1.1118    0.5974 H   0  0  0  0  0  0  0  0  0  0  0  0
   -2.8695    1.7497    0.5214 H   0  0  0  0  0  0  0  0  0  0  0  0
   -3.9254   -3.3841    0.9264 H   0  0  0  0  0  0  0  0  0  0  0  0
   -2.5577   -2.9743   -0.1273 H   0  0  0  0  0  0  0  0  0  0  0  0
   -5.5631    0.2632   -1.4652 H   0  0  0  0  0  0  0  0  0  0  0  0
   -5.1140    0.9670   -3.0051 H   0  0  0  0  0  0  0  0  0  0  0  0
   -4.2272   -0.4175   -2.4663 H   0  0  0  0  0  0  0  0  0  0  0  0
   -1.6226    2.0395   -1.7126 H   0  0  0  0  0  0  0  0  0  0  0  0
   -2.4885    1.7059   -3.2187 H   0  0  0  0  0  0  0  0  0  0  0  0
   -1.9557    0.3700   -2.1958 H   0  0  0  0  0  0  0  0  0  0  0  0
   -5.2386    2.9586   -1.0132 H   0  0  0  0  0  0  0  0  0  0  0  0
   -4.3895    3.2064   -2.5476 H   0  0  0  0  0  0  0  0  0  0  0  0
   -3.5881    3.5980   -1.0198 H   0  0  0  0  0  0  0  0  0  0  0  0
    1.5918    3.3188    1.1989 H   0  0  0  0  0  0  0  0  0  0  0  0
    1.9560   -1.1645   -0.1162 H   0  0  0  0  0  0  0  0  0  0  0  0
    3.5109    4.3785    0.0415 H   0  0  0  0  0  0  0  0  0  0  0  0
    3.8152   -1.3106   -2.0572 H   0  0  0  0  0  0  0  0  0  0  0  0
    4.8089   -1.5536   -0.6039 H   0  0  0  0  0  0  0  0  0  0  0  0
    5.0844    2.9176   -1.2399 H   0  0  0  0  0  0  0  0  0  0  0  0
    4.0239   -3.7053   -1.5311 H   0  0  0  0  0  0  0  0  0  0  0  0
    3.3396   -3.4304    0.0915 H   0  0  0  0  0  0  0  0  0  0  0  0
    2.1938   -5.1777   -2.0365 H   0  0  0  0  0  0  0  0  0  0  0  0
    1.5067   -4.8840   -0.4046 H   0  0  0  0  0  0  0  0  0  0  0  0
    0.5424   -4.5471   -1.8577 H   0  0  0  0  0  0  0  0  0  0  0  0
  1  5  1  0  0  0  0
  1 14  1  0  0  0  0
  2 25  1  0  0  0  0
  2 26  1  0  0  0  0
  3  8  1  0  0  0  0
  3 10  1  0  0  0  0
  3 11  1  0  0  0  0
  4 14  2  0  0  0  0
  4 18  1  0  0  0  0
  5 18  2  0  0  0  0
  6 20  1  0  0  0  0
  6 23  1  0  0  0  0
  6 46  1  0  0  0  0
  7 20  1  0  0  0  0
  7 24  2  0  0  0  0
  8  9  1  0  0  0  0
  8 14  1  0  0  0  0
  8 27  1  0  0  0  0
  9 12  1  0  0  0  0
  9 28  1  0  0  0  0
  9 29  1  0  0  0  0
 10 12  1  0  0  0  0
 10 30  1  0  0  0  0
 10 31  1  0  0  0  0
 11 13  1  0  0  0  0
 11 32  1  0  0  0  0
 11 33  1  0  0  0  0
 12 34  1  0  0  0  0
 12 35  1  0  0  0  0
 13 15  1  0  0  0  0
 13 16  1  0  0  0  0
 13 17  1  0  0  0  0
 15 36  1  0  0  0  0
 15 37  1  0  0  0  0
 15 38  1  0  0  0  0
 16 39  1  0  0  0  0
 16 40  1  0  0  0  0
 16 41  1  0  0  0  0
 17 42  1  0  0  0  0
 17 43  1  0  0  0  0
 17 44  1  0  0  0  0
 18 19  1  0  0  0  0
 19 20  2  0  0  0  0
 19 21  1  0  0  0  0
 21 22  2  0  0  0  0
 21 45  1  0  0  0  0
 22 24  1  0  0  0  0
 22 47  1  0  0  0  0
 23 25  1  0  0  0  0
 23 48  1  0  0  0  0
 23 49  1  0  0  0  0
 24 50  1  0  0  0  0
 25 51  1  0  0  0  0
 25 52  1  0  0  0  0
 26 53  1  0  0  0  0
 26 54  1  0  0  0  0
 26 55  1  0  0  0  0
M  END
> <PUBCHEM_COMPOUND_CID>
45783388

> <PUBCHEM_CONFORMER_RMSD>
1

> <PUBCHEM_CONFORMER_DIVERSEORDER>
33
11
90
44
51
2
95
27
66
37
36
91
74
29
46
52
42
64
88
43
59
94
69
3
71
15
4
49
76
6
75
34
31
67
60
28
22
56
50
55
26
87
18
23
39
57
20
96
77
54
40
82
65
80
19
85
62
16
63
81
86
13
24
92
68
12
5
30
53
35
73
48
32
7
93
47
1
58
9
38
72
78
14
61
25
79
8
10
84
21
83
89
70
45
17
41

> <PUBCHEM_MMFF94_PARTIAL_CHARGES>
24
1 -0.02
10 0.27
11 0.27
14 0.3
18 0.46
19 0.05
2 -0.56
20 0.41
21 -0.15
22 -0.15
23 0.37
24 0.16
25 0.28
26 0.28
3 -0.81
4 -0.57
45 0.15
46 0.4
47 0.15
5 -0.41
50 0.15
6 -0.87
7 -0.62
8 0.45

> <PUBCHEM_EFFECTIVE_ROTOR_COUNT>
9

> <PUBCHEM_PHARMACOPHORE_FEATURES>
10
1 2 acceptor
1 3 cation
1 6 cation
1 6 donor
1 7 acceptor
3 4 5 18 cation
4 13 15 16 17 hydrophobe
5 1 4 5 14 18 rings
5 3 8 9 10 12 rings
6 7 19 20 21 22 24 rings

> <PUBCHEM_HEAVY_ATOM_COUNT>
26

> <PUBCHEM_ATOM_DEF_STEREO_COUNT>
1

> <PUBCHEM_ATOM_UDEF_STEREO_COUNT>
0

> <PUBCHEM_BOND_DEF_STEREO_COUNT>
0

> <PUBCHEM_BOND_UDEF_STEREO_COUNT>
0

> <PUBCHEM_ISOTOPIC_ATOM_COUNT>
0

> <PUBCHEM_COMPONENT_COUNT>
1

> <PUBCHEM_CACTVS_TAUTO_COUNT>
8

> <PUBCHEM_CONFORMER_ID>
02BA995C00000021

> <PUBCHEM_MMFF94_ENERGY>
70.909

> <PUBCHEM_FEATURE_SELFOVERLAP>
50.746

> <PUBCHEM_SHAPE_FINGERPRINT>
10483366 6 17040638284441750125
10498660 4 17458891722006751197
10670039 82 16732979868809068372
11582403 64 17902775690289732120
11720765 8 17910376313224142684
12553582 1 17837524893582476970
13911987 19 17909852142747137096
14114206 34 17115550275238334814
14251757 17 18191872219094069911
14659021 117 17113823990854691790
15961568 22 17099747402539407252
20465049 17 17614845115571884045
20645477 70 18412553115093525362
21033650 10 17386018281592641400
21315764 21 18200022920418220503
21641784 216 16464746602963905868
21857420 4 15591837067108299245
21864079 5 16081377383403077261
23114952 82 18410298007748736297
235170 7 18264494051443355715
23557571 272 17823419469104153577
23559900 14 18341332202233534882
238 59 18343295972665669974
312425 83 18409440367473539589
4280585 95 18123193403457474490
46194498 28 18334867159286726023
469060 322 17765698510244396327
550186 7 17607534819245543028
613672 6 18051699841493892238
7399639 24 18049443943711012689

> <PUBCHEM_SHAPE_MULTIPOLES>
498.42
9.58
4.53
2.28
2.26
3.23
0.48
-3.19
-4.73
-3.56
-2.44
1.37
0.41
3.58

> <PUBCHEM_SHAPE_SELFOVERLAP>
1036.942

> <PUBCHEM_SHAPE_VOLUME>
287.4

> <PUBCHEM_COORDINATE_TYPE>
2
5
10

$$$$
