28961362
  -OEChem-12032416283D

 60 63  0     1  0  0  0  0  0999 V2000
    2.6973   -2.0058    1.7291 S   0  0  0  0  0  0  0  0  0  0  0  0
    2.4971    2.6244    0.8218 O   0  0  0  0  0  0  0  0  0  0  0  0
    1.0705    2.4054   -1.8022 O   0  0  0  0  0  0  0  0  0  0  0  0
    4.2154    4.6162   -0.1707 O   0  0  0  0  0  0  0  0  0  0  0  0
    1.3394   -2.4744    1.9304 O   0  0  0  0  0  0  0  0  0  0  0  0
    3.7478   -2.3965    2.6496 O   0  0  0  0  0  0  0  0  0  0  0  0
   -0.8838    1.4189    0.0496 N   0  0  0  0  0  0  0  0  0  0  0  0
   -3.5147    0.3065    0.0299 N   0  0  0  0  0  0  0  0  0  0  0  0
    2.6913   -0.3099    1.5806 N   0  0  0  0  0  0  0  0  0  0  0  0
    0.1624    2.3417    0.4539 C   0  0  1  0  0  0  0  0  0  0  0  0
    1.4073    1.7161    1.0961 C   0  0  1  0  0  0  0  0  0  0  0  0
    0.7444    3.1928   -0.6642 C   0  0  1  0  0  0  0  0  0  0  0  0
    2.0124    3.7083    0.0059 C   0  0  2  0  0  0  0  0  0  0  0  0
   -1.3787    0.6625    1.2066 C   0  0  0  0  0  0  0  0  0  0  0  0
   -1.9922    2.1428   -0.5846 C   0  0  0  0  0  0  0  0  0  0  0  0
    1.8240    0.3422    0.5831 C   0  0  0  0  0  0  0  0  0  0  0  0
   -2.4418   -0.3539    0.7841 C   0  0  0  0  0  0  0  0  0  0  0  0
   -3.0770    1.1762   -1.0663 C   0  0  0  0  0  0  0  0  0  0  0  0
    3.1139    4.1564   -0.9373 C   0  0  0  0  0  0  0  0  0  0  0  0
   -4.7558   -0.3354   -0.0467 C   0  0  0  0  0  0  0  0  0  0  0  0
   -5.4678   -0.6181    1.1189 C   0  0  0  0  0  0  0  0  0  0  0  0
   -5.2809   -0.6922   -1.2887 C   0  0  0  0  0  0  0  0  0  0  0  0
    3.2130   -2.5075    0.1144 C   0  0  0  0  0  0  0  0  0  0  0  0
   -6.7052   -1.2575    1.0425 C   0  0  0  0  0  0  0  0  0  0  0  0
   -6.5182   -1.3316   -1.3652 C   0  0  0  0  0  0  0  0  0  0  0  0
   -7.2305   -1.6141   -0.1995 C   0  0  0  0  0  0  0  0  0  0  0  0
    4.5700   -2.6699   -0.1645 C   0  0  0  0  0  0  0  0  0  0  0  0
    2.2636   -2.7410   -0.8803 C   0  0  0  0  0  0  0  0  0  0  0  0
    4.9776   -3.0658   -1.4385 C   0  0  0  0  0  0  0  0  0  0  0  0
    2.6711   -3.1370   -2.1544 C   0  0  0  0  0  0  0  0  0  0  0  0
    4.0282   -3.2995   -2.4333 C   0  0  0  0  0  0  0  0  0  0  0  0
   -0.2474    3.0469    1.1954 H   0  0  0  0  0  0  0  0  0  0  0  0
    1.2740    1.6801    2.1849 H   0  0  0  0  0  0  0  0  0  0  0  0
    0.0924    4.0138   -0.9792 H   0  0  0  0  0  0  0  0  0  0  0  0
    1.7690    4.5198    0.7039 H   0  0  0  0  0  0  0  0  0  0  0  0
   -1.8170    1.3476    1.9462 H   0  0  0  0  0  0  0  0  0  0  0  0
   -0.5919    0.1122    1.7299 H   0  0  0  0  0  0  0  0  0  0  0  0
   -1.6568    2.6973   -1.4673 H   0  0  0  0  0  0  0  0  0  0  0  0
   -2.4322    2.8696    0.1117 H   0  0  0  0  0  0  0  0  0  0  0  0
    2.4031    0.4412   -0.3424 H   0  0  0  0  0  0  0  0  0  0  0  0
    0.9749   -0.3086    0.3760 H   0  0  0  0  0  0  0  0  0  0  0  0
   -1.9892   -1.1358    0.1603 H   0  0  0  0  0  0  0  0  0  0  0  0
   -2.8235   -0.8427    1.6879 H   0  0  0  0  0  0  0  0  0  0  0  0
   -3.9163    1.7705   -1.4486 H   0  0  0  0  0  0  0  0  0  0  0  0
   -2.6862    0.5680   -1.8923 H   0  0  0  0  0  0  0  0  0  0  0  0
    2.7703    4.9680   -1.5858 H   0  0  0  0  0  0  0  0  0  0  0  0
    3.4762    3.3255   -1.5509 H   0  0  0  0  0  0  0  0  0  0  0  0
    1.3344    3.0126   -2.5142 H   0  0  0  0  0  0  0  0  0  0  0  0
    3.5406    0.2067    1.8412 H   0  0  0  0  0  0  0  0  0  0  0  0
    4.9024    4.8996   -0.7979 H   0  0  0  0  0  0  0  0  0  0  0  0
   -5.0824   -0.3356    2.0952 H   0  0  0  0  0  0  0  0  0  0  0  0
   -4.7478   -0.5007   -2.2156 H   0  0  0  0  0  0  0  0  0  0  0  0
   -7.2613   -1.4749    1.9498 H   0  0  0  0  0  0  0  0  0  0  0  0
   -6.9262   -1.6124   -2.3318 H   0  0  0  0  0  0  0  0  0  0  0  0
   -8.1939   -2.1119   -0.2590 H   0  0  0  0  0  0  0  0  0  0  0  0
    5.3269   -2.4863    0.5926 H   0  0  0  0  0  0  0  0  0  0  0  0
    1.2018   -2.6187   -0.6862 H   0  0  0  0  0  0  0  0  0  0  0  0
    6.0343   -3.1905   -1.6565 H   0  0  0  0  0  0  0  0  0  0  0  0
    1.9321   -3.3180   -2.9293 H   0  0  0  0  0  0  0  0  0  0  0  0
    4.3455   -3.6072   -3.4253 H   0  0  0  0  0  0  0  0  0  0  0  0
  1  5  2  0  0  0  0
  1  6  2  0  0  0  0
  1  9  1  0  0  0  0
  1 23  1  0  0  0  0
  2 11  1  0  0  0  0
  2 13  1  0  0  0  0
  3 12  1  0  0  0  0
  3 48  1  0  0  0  0
  4 19  1  0  0  0  0
  4 50  1  0  0  0  0
  7 10  1  0  0  0  0
  7 14  1  0  0  0  0
  7 15  1  0  0  0  0
  8 17  1  0  0  0  0
  8 18  1  0  0  0  0
  8 20  1  0  0  0  0
  9 16  1  0  0  0  0
  9 49  1  0  0  0  0
 10 11  1  0  0  0  0
 10 12  1  0  0  0  0
 10 32  1  0  0  0  0
 11 16  1  0  0  0  0
 11 33  1  0  0  0  0
 12 13  1  0  0  0  0
 12 34  1  0  0  0  0
 13 19  1  0  0  0  0
 13 35  1  0  0  0  0
 14 17  1  0  0  0  0
 14 36  1  0  0  0  0
 14 37  1  0  0  0  0
 15 18  1  0  0  0  0
 15 38  1  0  0  0  0
 15 39  1  0  0  0  0
 16 40  1  0  0  0  0
 16 41  1  0  0  0  0
 17 42  1  0  0  0  0
 17 43  1  0  0  0  0
 18 44  1  0  0  0  0
 18 45  1  0  0  0  0
 19 46  1  0  0  0  0
 19 47  1  0  0  0  0
 20 21  2  0  0  0  0
 20 22  1  0  0  0  0
 21 24  1  0  0  0  0
 21 51  1  0  0  0  0
 22 25  2  0  0  0  0
 22 52  1  0  0  0  0
 23 27  2  0  0  0  0
 23 28  1  0  0  0  0
 24 26  2  0  0  0  0
 24 53  1  0  0  0  0
 25 26  1  0  0  0  0
 25 54  1  0  0  0  0
 26 55  1  0  0  0  0
 27 29  1  0  0  0  0
 27 56  1  0  0  0  0
 28 30  2  0  0  0  0
 28 57  1  0  0  0  0
 29 31  2  0  0  0  0
 29 58  1  0  0  0  0
 30 31  1  0  0  0  0
 30 59  1  0  0  0  0
 31 60  1  0  0  0  0
M  END
> <PUBCHEM_COMPOUND_CID>
28961362

> <PUBCHEM_CONFORMER_RMSD>
1

> <PUBCHEM_CONFORMER_DIVERSEORDER>
1
10
30
65
49
38
42
47
22
29
37
58
50
56
61
55
15
11
33
45
52
32
23
48
46
40
39
62
51
9
24
44
4
60
63
57
21
54
19
34
41
2
25
31
28
5
43
35
64
20
17
53
59
13
3
12
36
18
8
14
7
16
6
26
27

> <PUBCHEM_MMFF94_PARTIAL_CHARGES>
44
1 1.45
10 0.27
11 0.28
12 0.28
13 0.28
14 0.27
15 0.27
16 0.36
17 0.37
18 0.37
19 0.28
2 -0.56
20 0.1
21 -0.15
22 -0.15
23 -0.01
24 -0.15
25 -0.15
26 -0.15
27 -0.15
28 -0.15
29 -0.15
3 -0.68
30 -0.15
31 -0.15
4 -0.68
48 0.4
49 0.42
5 -0.65
50 0.4
51 0.15
52 0.15
53 0.15
54 0.15
55 0.15
56 0.15
57 0.15
58 0.15
59 0.15
6 -0.65
60 0.15
7 -0.81
8 -0.84
9 -0.91

> <PUBCHEM_EFFECTIVE_ROTOR_COUNT>
9.2

> <PUBCHEM_PHARMACOPHORE_FEATURES>
14
1 2 acceptor
1 3 acceptor
1 3 donor
1 4 acceptor
1 4 donor
1 5 acceptor
1 6 acceptor
1 7 cation
1 8 cation
1 9 donor
5 2 10 11 12 13 rings
6 20 21 22 24 25 26 rings
6 23 27 28 29 30 31 rings
6 7 8 14 15 17 18 rings

> <PUBCHEM_HEAVY_ATOM_COUNT>
31

> <PUBCHEM_ATOM_DEF_STEREO_COUNT>
4

> <PUBCHEM_ATOM_UDEF_STEREO_COUNT>
0

> <PUBCHEM_BOND_DEF_STEREO_COUNT>
0

> <PUBCHEM_BOND_UDEF_STEREO_COUNT>
0

> <PUBCHEM_ISOTOPIC_ATOM_COUNT>
0

> <PUBCHEM_COMPONENT_COUNT>
1

> <PUBCHEM_CACTVS_TAUTO_COUNT>
1

> <PUBCHEM_CONFORMER_ID>
01B9EA5200000001

> <PUBCHEM_MMFF94_ENERGY>
82.1909

> <PUBCHEM_FEATURE_SELFOVERLAP>
71.073

> <PUBCHEM_SHAPE_FINGERPRINT>
10169797 241 18187375366997667043
10319688 140 18341337768136545726
10951579 204 16516783911885044007
11181472 205 18341898516054184105
11488393 25 18265632016335384896
11954058 11 18202566163812139591
12422481 6 17703507702105709983
12623949 98 18336267946429016623
12788726 201 17467922861467124848
13533116 47 18341891948542293073
13757389 114 17692266135461030249
14251740 57 18130784547266934955
14681488 357 18342177743739599759
14918310 93 18187918526395922028
15484559 13 18043527420677614856
1813 80 18340483361950642683
19026451 147 18336839597849380694
20028762 73 17400091163245908675
20771845 140 18129370674245446024
20775438 99 18265046028183649515
21344244 246 18411709798818837388
21716022 299 18269855184663870628
21792965 20 13972306132372035645
2260408 40 17989201521283752475
24204213 148 17055803182862716815
25222932 49 18262500521146858706
4017518 198 18054519264902562844
4394409 98 15025016742505828590
46194498 28 18335697264906779941
59755656 215 18041273391343392809
613672 6 18125419943966443047
6669772 16 18196380432112571548
6700243 42 17482857575431428886
7808743 9 9404483583977433759

> <PUBCHEM_SHAPE_MULTIPOLES>
597.53
14.33
5.88
2.03
27.12
4.69
-0.17
-13.33
2.26
-11.41
2.25
-1.82
-1.7
0.7

> <PUBCHEM_SHAPE_SELFOVERLAP>
1254.206

> <PUBCHEM_SHAPE_VOLUME>
336.8

> <PUBCHEM_COORDINATE_TYPE>
2
5
10

$$$$
