25389993
  -OEChem-12032416173D

 64 68  0     1  0  0  0  0  0999 V2000
    1.2750   -2.7249    2.3210 O   0  0  0  0  0  0  0  0  0  0  0  0
    0.2864   -0.6870    2.7755 O   0  0  0  0  0  0  0  0  0  0  0  0
   -3.5940   -3.0190   -2.8293 O   0  0  0  0  0  0  0  0  0  0  0  0
   -4.9618    5.7005    0.6357 O   0  0  0  0  0  0  0  0  0  0  0  0
   -0.1849   -0.2000    0.1249 N   0  0  2  0  0  0  0  0  0  0  0  0
    2.9801    1.8123   -0.0792 N   0  0  0  0  0  0  0  0  0  0  0  0
   -2.0609    3.6258   -0.2660 N   0  0  0  0  0  0  0  0  0  0  0  0
    0.6114    1.0158    0.4774 C   0  0  2  0  0  0  0  0  0  0  0  0
   -1.5947   -0.0908    0.5781 C   0  0  1  0  0  0  0  0  0  0  0  0
   -0.0191    2.2753   -0.1369 C   0  0  0  0  0  0  0  0  0  0  0  0
   -1.4585    2.4441    0.3485 C   0  0  2  0  0  0  0  0  0  0  0  0
   -2.2621    1.1878    0.0161 C   0  0  0  0  0  0  0  0  0  0  0  0
    0.4961   -1.4683    0.5040 C   0  0  1  0  0  0  0  0  0  0  0  0
    2.0316    0.8342    0.0319 C   0  0  0  0  0  0  0  0  0  0  0  0
    1.8586   -1.6487   -0.2129 C   0  0  0  0  0  0  0  0  0  0  0  0
    2.6235   -0.3731   -0.2690 C   0  0  0  0  0  0  0  0  0  0  0  0
   -2.4696   -1.2790    0.1861 C   0  0  0  0  0  0  0  0  0  0  0  0
    3.9791   -0.1189   -0.6124 C   0  0  0  0  0  0  0  0  0  0  0  0
    4.1762    1.2599   -0.4860 C   0  0  0  0  0  0  0  0  0  0  0  0
    0.6592   -1.5528    1.9954 C   0  0  0  0  0  0  0  0  0  0  0  0
   -3.1975    4.0899    0.5144 C   0  0  0  0  0  0  0  0  0  0  0  0
   -2.6349   -1.6096   -1.1589 C   0  0  0  0  0  0  0  0  0  0  0  0
   -3.1028   -2.0345    1.1729 C   0  0  0  0  0  0  0  0  0  0  0  0
    5.0634   -0.9242   -1.0148 C   0  0  0  0  0  0  0  0  0  0  0  0
    5.4080    1.8719   -0.7447 C   0  0  0  0  0  0  0  0  0  0  0  0
   -3.8492    5.2926   -0.1495 C   0  0  0  0  0  0  0  0  0  0  0  0
   -3.4336   -2.6956   -1.5170 C   0  0  0  0  0  0  0  0  0  0  0  0
    6.2999   -0.3241   -1.2783 C   0  0  0  0  0  0  0  0  0  0  0  0
   -3.9015   -3.1205    0.8148 C   0  0  0  0  0  0  0  0  0  0  0  0
    6.4674    1.0526   -1.1448 C   0  0  0  0  0  0  0  0  0  0  0  0
   -4.0669   -3.4511   -0.5302 C   0  0  0  0  0  0  0  0  0  0  0  0
    1.4941   -2.9366    3.7193 C   0  0  0  0  0  0  0  0  0  0  0  0
   -2.9179   -2.2043   -3.7860 C   0  0  0  0  0  0  0  0  0  0  0  0
    0.6336    1.1776    1.5608 H   0  0  0  0  0  0  0  0  0  0  0  0
   -1.6291    0.0093    1.6690 H   0  0  0  0  0  0  0  0  0  0  0  0
    0.5633    3.1633    0.1423 H   0  0  0  0  0  0  0  0  0  0  0  0
    0.0117    2.2154   -1.2345 H   0  0  0  0  0  0  0  0  0  0  0  0
   -1.4194    2.5717    1.4394 H   0  0  0  0  0  0  0  0  0  0  0  0
   -2.3746    1.1208   -1.0749 H   0  0  0  0  0  0  0  0  0  0  0  0
   -3.2783    1.2595    0.4238 H   0  0  0  0  0  0  0  0  0  0  0  0
   -0.1204   -2.3254    0.2093 H   0  0  0  0  0  0  0  0  0  0  0  0
    1.6676   -1.9664   -1.2467 H   0  0  0  0  0  0  0  0  0  0  0  0
    2.4723   -2.4283    0.2507 H   0  0  0  0  0  0  0  0  0  0  0  0
    2.8346    2.7953    0.1049 H   0  0  0  0  0  0  0  0  0  0  0  0
   -1.3727    4.3765   -0.3216 H   0  0  0  0  0  0  0  0  0  0  0  0
   -2.8886    4.3690    1.5299 H   0  0  0  0  0  0  0  0  0  0  0  0
   -3.9607    3.3118    0.6259 H   0  0  0  0  0  0  0  0  0  0  0  0
   -2.1117   -1.0027   -1.8896 H   0  0  0  0  0  0  0  0  0  0  0  0
   -2.9825   -1.7902    2.2249 H   0  0  0  0  0  0  0  0  0  0  0  0
    4.9484   -1.9989   -1.1223 H   0  0  0  0  0  0  0  0  0  0  0  0
    5.5404    2.9435   -0.6396 H   0  0  0  0  0  0  0  0  0  0  0  0
   -4.2081    5.0421   -1.1534 H   0  0  0  0  0  0  0  0  0  0  0  0
   -3.1496    6.1320   -0.2212 H   0  0  0  0  0  0  0  0  0  0  0  0
    7.1388   -0.9408   -1.5900 H   0  0  0  0  0  0  0  0  0  0  0  0
   -4.3942   -3.7090    1.5832 H   0  0  0  0  0  0  0  0  0  0  0  0
    7.4368    1.4977   -1.3539 H   0  0  0  0  0  0  0  0  0  0  0  0
   -4.6899   -4.2984   -0.8030 H   0  0  0  0  0  0  0  0  0  0  0  0
    1.9896   -3.9031    3.8433 H   0  0  0  0  0  0  0  0  0  0  0  0
    0.5390   -2.9601    4.2528 H   0  0  0  0  0  0  0  0  0  0  0  0
    2.1438   -2.1542    4.1230 H   0  0  0  0  0  0  0  0  0  0  0  0
   -5.3593    6.4680    0.1900 H   0  0  0  0  0  0  0  0  0  0  0  0
   -3.1600   -2.6020   -4.7770 H   0  0  0  0  0  0  0  0  0  0  0  0
   -1.8303   -2.2695   -3.6734 H   0  0  0  0  0  0  0  0  0  0  0  0
   -3.2778   -1.1700   -3.7609 H   0  0  0  0  0  0  0  0  0  0  0  0
  1 20  1  0  0  0  0
  1 32  1  0  0  0  0
  2 20  2  0  0  0  0
  3 27  1  0  0  0  0
  3 33  1  0  0  0  0
  4 26  1  0  0  0  0
  4 61  1  0  0  0  0
  5  8  1  0  0  0  0
  5  9  1  0  0  0  0
  5 13  1  0  0  0  0
  6 14  1  0  0  0  0
  6 19  1  0  0  0  0
  6 44  1  0  0  0  0
  7 11  1  0  0  0  0
  7 21  1  0  0  0  0
  7 45  1  0  0  0  0
  8 10  1  0  0  0  0
  8 14  1  0  0  0  0
  8 34  1  0  0  0  0
  9 12  1  0  0  0  0
  9 17  1  0  0  0  0
  9 35  1  0  0  0  0
 10 11  1  0  0  0  0
 10 36  1  0  0  0  0
 10 37  1  0  0  0  0
 11 12  1  0  0  0  0
 11 38  1  0  0  0  0
 12 39  1  0  0  0  0
 12 40  1  0  0  0  0
 13 15  1  0  0  0  0
 13 20  1  0  0  0  0
 13 41  1  0  0  0  0
 14 16  2  0  0  0  0
 15 16  1  0  0  0  0
 15 42  1  0  0  0  0
 15 43  1  0  0  0  0
 16 18  1  0  0  0  0
 17 22  2  0  0  0  0
 17 23  1  0  0  0  0
 18 19  1  0  0  0  0
 18 24  2  0  0  0  0
 19 25  2  0  0  0  0
 21 26  1  0  0  0  0
 21 46  1  0  0  0  0
 21 47  1  0  0  0  0
 22 27  1  0  0  0  0
 22 48  1  0  0  0  0
 23 29  2  0  0  0  0
 23 49  1  0  0  0  0
 24 28  1  0  0  0  0
 24 50  1  0  0  0  0
 25 30  1  0  0  0  0
 25 51  1  0  0  0  0
 26 52  1  0  0  0  0
 26 53  1  0  0  0  0
 27 31  2  0  0  0  0
 28 30  2  0  0  0  0
 28 54  1  0  0  0  0
 29 31  1  0  0  0  0
 29 55  1  0  0  0  0
 30 56  1  0  0  0  0
 31 57  1  0  0  0  0
 32 58  1  0  0  0  0
 32 59  1  0  0  0  0
 32 60  1  0  0  0  0
 33 62  1  0  0  0  0
 33 63  1  0  0  0  0
 33 64  1  0  0  0  0
M  END
> <PUBCHEM_COMPOUND_CID>
25389993

> <PUBCHEM_CONFORMER_RMSD>
1

> <PUBCHEM_CONFORMER_DIVERSEORDER>
1
11
10
6
14
23
17
19
3
22
7
16
20
15
4
21
18
9
13
24
12
8
25
2
5

> <PUBCHEM_MMFF94_PARTIAL_CHARGES>
41
1 -0.43
11 0.27
13 0.33
14 -0.33
15 0.18
16 -0.18
17 -0.14
19 -0.15
2 -0.57
20 0.66
21 0.27
22 -0.15
23 -0.15
24 -0.15
25 -0.15
26 0.28
27 0.08
28 -0.15
29 -0.15
3 -0.36
30 -0.15
31 -0.15
32 0.28
33 0.28
4 -0.68
44 0.27
45 0.36
48 0.15
49 0.15
5 -0.81
50 0.15
51 0.15
54 0.15
55 0.15
56 0.15
57 0.15
6 0.03
61 0.4
7 -0.9
8 0.45
9 0.41

> <PUBCHEM_EFFECTIVE_ROTOR_COUNT>
8.2

> <PUBCHEM_PHARMACOPHORE_FEATURES>
14
1 2 acceptor
1 3 acceptor
1 4 acceptor
1 4 donor
1 5 cation
1 6 cation
1 6 donor
1 7 cation
1 7 donor
5 6 14 16 18 19 rings
6 17 22 23 27 29 31 rings
6 18 19 24 25 28 30 rings
6 5 8 13 14 15 16 rings
6 5 8 9 10 11 12 rings

> <PUBCHEM_HEAVY_ATOM_COUNT>
33

> <PUBCHEM_ATOM_DEF_STEREO_COUNT>
4

> <PUBCHEM_ATOM_UDEF_STEREO_COUNT>
0

> <PUBCHEM_BOND_DEF_STEREO_COUNT>
0

> <PUBCHEM_BOND_UDEF_STEREO_COUNT>
0

> <PUBCHEM_ISOTOPIC_ATOM_COUNT>
0

> <PUBCHEM_COMPONENT_COUNT>
1

> <PUBCHEM_CACTVS_TAUTO_COUNT>
1

> <PUBCHEM_CONFORMER_ID>
01836BA900000001

> <PUBCHEM_MMFF94_ENERGY>
80.8025

> <PUBCHEM_FEATURE_SELFOVERLAP>
71.241

> <PUBCHEM_SHAPE_FINGERPRINT>
10006869 2 18189619341966118001
10190206 1 18408602543934872677
1100329 8 17827642448780587370
12160290 23 18058428951708219451
12293681 160 17897153835153623362
12633257 1 13684351987100488439
12788726 201 18261956379192063712
12977781 61 16124949852375217366
133893 2 16589129542776124034
13540713 5 18188200997440671938
13690498 29 18128558083718303452
13911987 19 17825959396730559910
140371 6 17900275387931793708
14114206 34 18336251453490914511
14400156 266 17827607328949396650
14790565 3 18049446933478281401
15276724 80 18341060639983164863
15361156 5 18192738797977211348
15484559 13 17474396777167098709
15629462 23 18262247710539093739
16087824 20 18410862045769443073
16090146 7 17023481857706313834
17349148 13 18114188596446048838
19301676 85 17334235433000775806
20505436 4 18044947774598610280
23536364 44 18261661683968464311
23558518 356 18187658998168947504
23559900 14 17827085314381682756
283562 15 18187930633000952536
3633792 109 17313925499504686274
469060 322 16081378461972404135
57527295 17 17971444503802920295
59025328 239 17269443794182162229
9658208 31 18200302213267513945

> <PUBCHEM_SHAPE_MULTIPOLES>
640.7
11.36
6.12
2.53
15.17
9.85
0.18
2.01
-6.45
-13.18
0.97
-1.26
-3.82
-3.09

> <PUBCHEM_SHAPE_SELFOVERLAP>
1392.4

> <PUBCHEM_SHAPE_VOLUME>
348.3

> <PUBCHEM_COORDINATE_TYPE>
2
5
10

$$$$
