40777108
  -OEChem-12032416213D

 67 71  0     1  0  0  0  0  0999 V2000
    3.9196   -2.2011   -2.2792 Br  0  0  0  0  0  0  0  0  0  0  0  0
   -3.8781    1.9620   -2.0528 O   0  0  0  0  0  0  0  0  0  0  0  0
    0.3483    3.1856   -0.8022 N   0  0  2  0  0  0  0  0  0  0  0  0
   -2.3325    0.5609   -1.0365 N   0  0  0  0  0  0  0  0  0  0  0  0
    2.1030   -0.0668    1.8745 N   0  0  0  0  0  0  0  0  0  0  0  0
    3.8734   -1.6203    1.3648 N   0  0  0  0  0  0  0  0  0  0  0  0
   -7.8834   -2.2684    0.5400 N   0  0  0  0  0  0  0  0  0  0  0  0
    0.6822    2.4141    1.6628 C   0  0  2  0  0  0  0  0  0  0  0  0
    1.9642    2.1399    0.8287 C   0  0  2  0  0  0  0  0  0  0  0  0
   -0.7946    2.3355   -0.3764 C   0  0  2  0  0  0  0  0  0  0  0  0
   -0.5174    1.7013    1.0036 C   0  0  0  0  0  0  0  0  0  0  0  0
    0.4113    3.9315    1.5769 C   0  0  0  0  0  0  0  0  0  0  0  0
    1.6209    2.4354   -0.6593 C   0  0  0  0  0  0  0  0  0  0  0  0
    0.4005    4.3614    0.0995 C   0  0  0  0  0  0  0  0  0  0  0  0
   -1.1601    1.2825   -1.4248 C   0  0  0  0  0  0  0  0  0  0  0  0
    2.6631    0.7994    1.0049 C   0  0  0  0  0  0  0  0  0  0  0  0
    3.8117    0.5317    0.2884 C   0  0  0  0  0  0  0  0  0  0  0  0
    4.3793   -0.7064    0.5109 C   0  0  0  0  0  0  0  0  0  0  0  0
    2.7505   -1.2405    2.0039 C   0  0  0  0  0  0  0  0  0  0  0  0
   -3.6204    0.9632   -1.3862 C   0  0  0  0  0  0  0  0  0  0  0  0
    5.5838   -1.1083   -0.1754 C   0  0  0  0  0  0  0  0  0  0  0  0
   -4.7344    0.1194   -0.8824 C   0  0  0  0  0  0  0  0  0  0  0  0
    2.1623   -2.2239    2.9582 C   0  0  0  0  0  0  0  0  0  0  0  0
    5.5504   -1.7699   -1.4028 C   0  0  0  0  0  0  0  0  0  0  0  0
    6.8079   -0.8155    0.4260 C   0  0  0  0  0  0  0  0  0  0  0  0
   -5.9952    0.6790   -0.6750 C   0  0  0  0  0  0  0  0  0  0  0  0
   -4.5195   -1.2331   -0.6176 C   0  0  0  0  0  0  0  0  0  0  0  0
    6.7410   -2.1388   -2.0290 C   0  0  0  0  0  0  0  0  0  0  0  0
    7.9985   -1.1843   -0.2001 C   0  0  0  0  0  0  0  0  0  0  0  0
   -7.0411   -0.1139   -0.2026 C   0  0  0  0  0  0  0  0  0  0  0  0
   -5.5653   -2.0261   -0.1453 C   0  0  0  0  0  0  0  0  0  0  0  0
   -6.8260   -1.4665    0.0622 C   0  0  0  0  0  0  0  0  0  0  0  0
    7.9651   -1.8460   -1.4276 C   0  0  0  0  0  0  0  0  0  0  0  0
   -9.1970   -1.6965    0.7591 C   0  0  0  0  0  0  0  0  0  0  0  0
   -7.6722   -3.6765    0.8109 C   0  0  0  0  0  0  0  0  0  0  0  0
    0.7971    2.1049    2.7070 H   0  0  0  0  0  0  0  0  0  0  0  0
    2.7094    2.8823    1.1547 H   0  0  0  0  0  0  0  0  0  0  0  0
   -1.6745    2.9885   -0.2769 H   0  0  0  0  0  0  0  0  0  0  0  0
   -0.3124    0.6280    0.9231 H   0  0  0  0  0  0  0  0  0  0  0  0
   -1.4047    1.8104    1.6395 H   0  0  0  0  0  0  0  0  0  0  0  0
    1.1821    4.4895    2.1212 H   0  0  0  0  0  0  0  0  0  0  0  0
   -0.5519    4.1654    2.0466 H   0  0  0  0  0  0  0  0  0  0  0  0
    2.4317    3.0274   -1.1048 H   0  0  0  0  0  0  0  0  0  0  0  0
    1.5813    1.5186   -1.2589 H   0  0  0  0  0  0  0  0  0  0  0  0
   -0.4569    5.0184   -0.0912 H   0  0  0  0  0  0  0  0  0  0  0  0
    1.2888    4.9647   -0.1276 H   0  0  0  0  0  0  0  0  0  0  0  0
   -0.3651    0.5418   -1.5566 H   0  0  0  0  0  0  0  0  0  0  0  0
   -1.3370    1.7592   -2.3961 H   0  0  0  0  0  0  0  0  0  0  0  0
   -2.1939   -0.2407   -0.4307 H   0  0  0  0  0  0  0  0  0  0  0  0
    4.2438    1.2492   -0.3991 H   0  0  0  0  0  0  0  0  0  0  0  0
    1.0883   -2.0538    3.0823 H   0  0  0  0  0  0  0  0  0  0  0  0
    2.3040   -3.2465    2.5949 H   0  0  0  0  0  0  0  0  0  0  0  0
    2.6473   -2.1270    3.9340 H   0  0  0  0  0  0  0  0  0  0  0  0
    6.8547   -0.3008    1.3830 H   0  0  0  0  0  0  0  0  0  0  0  0
   -6.1806    1.7318   -0.8715 H   0  0  0  0  0  0  0  0  0  0  0  0
   -3.5622   -1.7143   -0.7949 H   0  0  0  0  0  0  0  0  0  0  0  0
    6.7363   -2.6550   -2.9857 H   0  0  0  0  0  0  0  0  0  0  0  0
    8.9517   -0.9566    0.2681 H   0  0  0  0  0  0  0  0  0  0  0  0
   -8.0026    0.3683   -0.0566 H   0  0  0  0  0  0  0  0  0  0  0  0
   -5.3497   -3.0738    0.0393 H   0  0  0  0  0  0  0  0  0  0  0  0
    8.8923   -2.1331   -1.9150 H   0  0  0  0  0  0  0  0  0  0  0  0
   -9.1617   -0.8993    1.5100 H   0  0  0  0  0  0  0  0  0  0  0  0
   -9.6188   -1.3048   -0.1733 H   0  0  0  0  0  0  0  0  0  0  0  0
   -9.9067   -2.4434    1.1321 H   0  0  0  0  0  0  0  0  0  0  0  0
   -7.3751   -4.2140   -0.0965 H   0  0  0  0  0  0  0  0  0  0  0  0
   -6.9138   -3.8208    1.5885 H   0  0  0  0  0  0  0  0  0  0  0  0
   -8.5857   -4.1604    1.1741 H   0  0  0  0  0  0  0  0  0  0  0  0
  1 24  1  0  0  0  0
  2 20  2  0  0  0  0
  3 10  1  0  0  0  0
  3 13  1  0  0  0  0
  3 14  1  0  0  0  0
  4 15  1  0  0  0  0
  4 20  1  0  0  0  0
  4 49  1  0  0  0  0
  5 16  2  0  0  0  0
  5 19  1  0  0  0  0
  6 18  1  0  0  0  0
  6 19  2  0  0  0  0
  7 32  1  0  0  0  0
  7 34  1  0  0  0  0
  7 35  1  0  0  0  0
  8  9  1  0  0  0  0
  8 11  1  0  0  0  0
  8 12  1  0  0  0  0
  8 36  1  0  0  0  0
  9 13  1  0  0  0  0
  9 16  1  0  0  0  0
  9 37  1  0  0  0  0
 10 11  1  0  0  0  0
 10 15  1  0  0  0  0
 10 38  1  0  0  0  0
 11 39  1  0  0  0  0
 11 40  1  0  0  0  0
 12 14  1  0  0  0  0
 12 41  1  0  0  0  0
 12 42  1  0  0  0  0
 13 43  1  0  0  0  0
 13 44  1  0  0  0  0
 14 45  1  0  0  0  0
 14 46  1  0  0  0  0
 15 47  1  0  0  0  0
 15 48  1  0  0  0  0
 16 17  1  0  0  0  0
 17 18  2  0  0  0  0
 17 50  1  0  0  0  0
 18 21  1  0  0  0  0
 19 23  1  0  0  0  0
 20 22  1  0  0  0  0
 21 24  1  0  0  0  0
 21 25  2  0  0  0  0
 22 26  2  0  0  0  0
 22 27  1  0  0  0  0
 23 51  1  0  0  0  0
 23 52  1  0  0  0  0
 23 53  1  0  0  0  0
 24 28  2  0  0  0  0
 25 29  1  0  0  0  0
 25 54  1  0  0  0  0
 26 30  1  0  0  0  0
 26 55  1  0  0  0  0
 27 31  2  0  0  0  0
 27 56  1  0  0  0  0
 28 33  1  0  0  0  0
 28 57  1  0  0  0  0
 29 33  2  0  0  0  0
 29 58  1  0  0  0  0
 30 32  2  0  0  0  0
 30 59  1  0  0  0  0
 31 32  1  0  0  0  0
 31 60  1  0  0  0  0
 33 61  1  0  0  0  0
 34 62  1  0  0  0  0
 34 63  1  0  0  0  0
 34 64  1  0  0  0  0
 35 65  1  0  0  0  0
 35 66  1  0  0  0  0
 35 67  1  0  0  0  0
M  END
> <PUBCHEM_COMPOUND_CID>
40777108

> <PUBCHEM_CONFORMER_RMSD>
1

> <PUBCHEM_CONFORMER_DIVERSEORDER>
1
108
98
54
120
99
110
21
39
116
57
126
56
123
33
72
115
101
136
47
112
79
95
138
102
130
114
29
88
119
87
129
18
91
81
113
105
64
69
83
78
75
80
71
67
65
117
82
135
137
109
92
70
107
49
89
84
104
118
9
121
85
30
63
103
60
132
20
68
76
125
22
61
133
40
59
19
86
111
44
26
48
38
10
16
50
14
58
35
94
17
96
53
122
134
127
51
37
41
46
27
74
8
77
24
124
100
28
52
36
32
4
34
43
128
62
23
131
6
42
7
106
97
15
90
13
31
93
55
66
45
73
11
5
2
12
3
25

> <PUBCHEM_MMFF94_PARTIAL_CHARGES>
41
1 -0.11
10 0.27
13 0.27
14 0.27
15 0.3
16 0.17
17 -0.15
18 0.31
19 0.48
2 -0.57
20 0.54
22 0.09
23 0.14
24 0.11
25 -0.15
26 -0.15
27 -0.15
28 -0.15
29 -0.15
3 -0.81
30 -0.15
31 -0.15
32 0.1
33 -0.15
34 0.37
35 0.37
4 -0.73
49 0.37
5 -0.62
50 0.15
54 0.15
55 0.15
56 0.15
57 0.15
58 0.15
59 0.15
6 -0.62
60 0.15
61 0.15
7 -0.84
9 0.14

> <PUBCHEM_EFFECTIVE_ROTOR_COUNT>
8.2

> <PUBCHEM_PHARMACOPHORE_FEATURES>
11
1 1 hydrophobe
1 2 acceptor
1 3 cation
1 4 donor
1 5 acceptor
1 7 cation
3 5 6 19 cation
6 21 24 25 28 29 33 rings
6 22 26 27 30 31 32 rings
6 5 6 16 17 18 19 rings
8 3 8 9 10 11 12 13 14 rings

> <PUBCHEM_HEAVY_ATOM_COUNT>
35

> <PUBCHEM_ATOM_DEF_STEREO_COUNT>
3

> <PUBCHEM_ATOM_UDEF_STEREO_COUNT>
0

> <PUBCHEM_BOND_DEF_STEREO_COUNT>
0

> <PUBCHEM_BOND_UDEF_STEREO_COUNT>
0

> <PUBCHEM_ISOTOPIC_ATOM_COUNT>
0

> <PUBCHEM_COMPONENT_COUNT>
1

> <PUBCHEM_CACTVS_TAUTO_COUNT>
2

> <PUBCHEM_CONFORMER_ID>
026E359400000001

> <PUBCHEM_MMFF94_ENERGY>
118.5114

> <PUBCHEM_FEATURE_SELFOVERLAP>
55.821

> <PUBCHEM_SHAPE_FINGERPRINT>
10169797 241 18200572753947832074
11399939 17 17769081681626678615
11607047 141 18271533117281218601
11621639 208 17537448692179792131
117089 54 18271254836858362351
11828532 37 18262248835826052622
12342043 65 18337386149791888277
12522641 68 16307702188610995829
12633257 1 14189277280096815972
13103583 49 14404884900559978876
13150687 139 12685090350489056760
13383661 66 18271251529870752450
13673619 4 18333447660343791341
13690498 29 18113891642249117277
13782708 43 18337665430282397135
14040221 126 18192999219072755762
14068700 675 18260267417726447172
14767858 380 17458628878623946578
14904525 67 9221860780816923871
14950920 106 13972807642649248684
15289351 153 11097841996408884790
15320295 44 17242161345473392738
15350500 185 10665229275892731367
15361156 5 17095241381388601717
15510800 12 18342460335096324287
15669420 48 15719401624510541845
15721738 202 17918269832355092792
16120349 189 8574419937861585504
19301679 30 18060147517746032373
195137 95 10159701274324643407
20737093 207 17824251602930986818
208703 8 18272934925417540945
21344244 246 18187651362171471548
21403212 168 9943807785887470168
21716022 299 18336840783092368076
21792965 78 17970074336432302434
23569917 315 18043805400205634090
25269216 80 18200327528748476140
255183 451 18335139838687970725
3862424 121 16879083013132452539
3918712 181 7997974548525039127
404807 78 17313394473331507747
437815 12 18343019990814824841
4461854 278 17275105037841136254
44880168 125 17846488236519717551
4756326 101 12107789661675758182
5372103 7 11458427950612479975
57527295 17 17531522066681122521
57527585 21 15721954566325601716
57676310 108 18265632020219700870
57816373 69 18271518823513779039
6201320 77 16558198077563715132
86090 222 17532077471104342825
9962374 69 18129089190995162655
999808 66 18131630058453969502

> <PUBCHEM_SHAPE_MULTIPOLES>
695.45
24.36
4.5
2.14
25.04
3.43
-0.51
-30.46
3.4
1.47
-0.5
-2.06
-0.75
3.71

> <PUBCHEM_SHAPE_SELFOVERLAP>
1493.427

> <PUBCHEM_SHAPE_VOLUME>
395.5

> <PUBCHEM_COORDINATE_TYPE>
2
5
10

$$$$
