40533450
  -OEChem-12032416413D

 53 57  0     1  0  0  0  0  0999 V2000
    2.1375    2.0586    1.3280 O   0  0  0  0  0  0  0  0  0  0  0  0
   -2.5663    0.4938    2.5411 O   0  0  0  0  0  0  0  0  0  0  0  0
   -2.1135   -4.8325   -0.7141 O   0  0  0  0  0  0  0  0  0  0  0  0
   -2.7056    1.4351    0.4038 N   0  0  0  0  0  0  0  0  0  0  0  0
    0.3266    2.1296   -0.1400 N   0  0  0  0  0  0  0  0  0  0  0  0
    5.7562   -0.6475   -0.5180 N   0  0  0  0  0  0  0  0  0  0  0  0
   -1.6749    3.6898    0.2156 C   0  0  1  0  0  0  0  0  0  0  0  0
   -1.6374    2.1631   -1.7159 C   0  0  2  0  0  0  0  0  0  0  0  0
   -1.8177    3.6226   -1.3013 C   0  0  0  0  0  0  0  0  0  0  0  0
   -2.7431    2.8126    0.8942 C   0  0  0  0  0  0  0  0  0  0  0  0
   -0.2508    3.2643    0.5957 C   0  0  0  0  0  0  0  0  0  0  0  0
   -2.7362    1.3001   -1.0619 C   0  0  0  0  0  0  0  0  0  0  0  0
   -0.2732    1.6432   -1.3044 C   0  0  0  0  0  0  0  0  0  0  0  0
    0.3343    0.6901   -2.0291 C   0  0  0  0  0  0  0  0  0  0  0  0
    1.5599    1.6338    0.3259 C   0  0  0  0  0  0  0  0  0  0  0  0
   -2.5921    0.3834    1.3163 C   0  0  0  0  0  0  0  0  0  0  0  0
    2.1928    0.5328   -0.4815 C   0  0  0  0  0  0  0  0  0  0  0  0
    1.5836    0.1256   -1.6049 C   0  0  0  0  0  0  0  0  0  0  0  0
   -2.4674   -0.9787    0.7865 C   0  0  0  0  0  0  0  0  0  0  0  0
    3.4474   -0.1050   -0.0490 C   0  0  0  0  0  0  0  0  0  0  0  0
   -1.2055   -1.5098    0.5191 C   0  0  0  0  0  0  0  0  0  0  0  0
   -3.6101   -1.7427    0.5497 C   0  0  0  0  0  0  0  0  0  0  0  0
    3.5380   -0.7490    1.1800 C   0  0  0  0  0  0  0  0  0  0  0  0
    4.5749   -0.0823   -0.8539 C   0  0  0  0  0  0  0  0  0  0  0  0
   -1.0864   -2.8049    0.0148 C   0  0  0  0  0  0  0  0  0  0  0  0
   -3.4910   -3.0378    0.0456 C   0  0  0  0  0  0  0  0  0  0  0  0
   -2.2293   -3.5688   -0.2219 C   0  0  0  0  0  0  0  0  0  0  0  0
    4.7365   -1.3424    1.5609 C   0  0  0  0  0  0  0  0  0  0  0  0
    5.8064   -1.2644    0.6839 C   0  0  0  0  0  0  0  0  0  0  0  0
   -0.7935   -5.3128   -0.9652 C   0  0  0  0  0  0  0  0  0  0  0  0
   -1.8291    4.7218    0.5541 H   0  0  0  0  0  0  0  0  0  0  0  0
   -1.7477    2.0993   -2.8061 H   0  0  0  0  0  0  0  0  0  0  0  0
   -1.0702    4.2611   -1.7886 H   0  0  0  0  0  0  0  0  0  0  0  0
   -2.8042    3.9895   -1.6095 H   0  0  0  0  0  0  0  0  0  0  0  0
   -2.6204    2.8410    1.9820 H   0  0  0  0  0  0  0  0  0  0  0  0
   -3.7437    3.2028    0.6716 H   0  0  0  0  0  0  0  0  0  0  0  0
    0.4279    4.1088    0.4142 H   0  0  0  0  0  0  0  0  0  0  0  0
   -0.1883    3.0530    1.6707 H   0  0  0  0  0  0  0  0  0  0  0  0
   -3.7261    1.6404   -1.3906 H   0  0  0  0  0  0  0  0  0  0  0  0
   -2.6402    0.2579   -1.3759 H   0  0  0  0  0  0  0  0  0  0  0  0
   -0.1183    0.2847   -2.9280 H   0  0  0  0  0  0  0  0  0  0  0  0
    1.9894   -0.6714   -2.2211 H   0  0  0  0  0  0  0  0  0  0  0  0
   -0.3096   -0.9296    0.7180 H   0  0  0  0  0  0  0  0  0  0  0  0
   -4.5981   -1.3383    0.7541 H   0  0  0  0  0  0  0  0  0  0  0  0
    2.6834   -0.8022    1.8498 H   0  0  0  0  0  0  0  0  0  0  0  0
    4.5751    0.4079   -1.8233 H   0  0  0  0  0  0  0  0  0  0  0  0
   -0.0763   -3.1557   -0.1669 H   0  0  0  0  0  0  0  0  0  0  0  0
   -4.3848   -3.6280   -0.1371 H   0  0  0  0  0  0  0  0  0  0  0  0
    4.8298   -1.8509    2.5136 H   0  0  0  0  0  0  0  0  0  0  0  0
    6.7630   -1.7114    0.9338 H   0  0  0  0  0  0  0  0  0  0  0  0
   -0.8889   -6.3319   -1.3539 H   0  0  0  0  0  0  0  0  0  0  0  0
   -0.2062   -5.3760   -0.0428 H   0  0  0  0  0  0  0  0  0  0  0  0
   -0.2904   -4.7216   -1.7379 H   0  0  0  0  0  0  0  0  0  0  0  0
  1 15  2  0  0  0  0
  2 16  2  0  0  0  0
  3 27  1  0  0  0  0
  3 30  1  0  0  0  0
  4 10  1  0  0  0  0
  4 12  1  0  0  0  0
  4 16  1  0  0  0  0
  5 11  1  0  0  0  0
  5 13  1  0  0  0  0
  5 15  1  0  0  0  0
  6 24  1  0  0  0  0
  6 29  2  0  0  0  0
  7  9  1  0  0  0  0
  7 10  1  0  0  0  0
  7 11  1  0  0  0  0
  7 31  1  0  0  0  0
  8  9  1  0  0  0  0
  8 12  1  0  0  0  0
  8 13  1  0  0  0  0
  8 32  1  0  0  0  0
  9 33  1  0  0  0  0
  9 34  1  0  0  0  0
 10 35  1  0  0  0  0
 10 36  1  0  0  0  0
 11 37  1  0  0  0  0
 11 38  1  0  0  0  0
 12 39  1  0  0  0  0
 12 40  1  0  0  0  0
 13 14  2  0  0  0  0
 14 18  1  0  0  0  0
 14 41  1  0  0  0  0
 15 17  1  0  0  0  0
 16 19  1  0  0  0  0
 17 18  2  0  0  0  0
 17 20  1  0  0  0  0
 18 42  1  0  0  0  0
 19 21  2  0  0  0  0
 19 22  1  0  0  0  0
 20 23  1  0  0  0  0
 20 24  2  0  0  0  0
 21 25  1  0  0  0  0
 21 43  1  0  0  0  0
 22 26  2  0  0  0  0
 22 44  1  0  0  0  0
 23 28  2  0  0  0  0
 23 45  1  0  0  0  0
 24 46  1  0  0  0  0
 25 27  2  0  0  0  0
 25 47  1  0  0  0  0
 26 27  1  0  0  0  0
 26 48  1  0  0  0  0
 28 29  1  0  0  0  0
 28 49  1  0  0  0  0
 29 50  1  0  0  0  0
 30 51  1  0  0  0  0
 30 52  1  0  0  0  0
 30 53  1  0  0  0  0
M  END
> <PUBCHEM_COMPOUND_CID>
40533450

> <PUBCHEM_CONFORMER_RMSD>
0.8

> <PUBCHEM_CONFORMER_DIVERSEORDER>
1
8
11
4
10
7
14
12
3
9
6
13
5
2

> <PUBCHEM_MMFF94_PARTIAL_CHARGES>
38
1 -0.57
10 0.3
11 0.3
12 0.3
13 -0.03
14 -0.15
15 0.62
16 0.54
17 -0.01
18 -0.15
19 0.09
2 -0.57
20 0.03
21 -0.15
22 -0.15
23 -0.15
24 0.16
25 -0.15
26 -0.15
27 0.08
28 -0.15
29 0.16
3 -0.36
30 0.28
4 -0.66
41 0.15
42 0.15
43 0.15
44 0.15
45 0.15
46 0.15
47 0.15
48 0.15
49 0.15
5 -0.47
50 0.15
6 -0.62
8 0.14

> <PUBCHEM_EFFECTIVE_ROTOR_COUNT>
5

> <PUBCHEM_PHARMACOPHORE_FEATURES>
9
1 1 acceptor
1 2 acceptor
1 3 acceptor
1 6 acceptor
6 19 21 22 25 26 27 rings
6 4 7 8 9 10 12 rings
6 5 13 14 15 17 18 rings
6 5 7 8 9 11 13 rings
6 6 20 23 24 28 29 rings

> <PUBCHEM_HEAVY_ATOM_COUNT>
30

> <PUBCHEM_ATOM_DEF_STEREO_COUNT>
2

> <PUBCHEM_ATOM_UDEF_STEREO_COUNT>
0

> <PUBCHEM_BOND_DEF_STEREO_COUNT>
0

> <PUBCHEM_BOND_UDEF_STEREO_COUNT>
0

> <PUBCHEM_ISOTOPIC_ATOM_COUNT>
0

> <PUBCHEM_COMPONENT_COUNT>
1

> <PUBCHEM_CACTVS_TAUTO_COUNT>
3

> <PUBCHEM_CONFORMER_ID>
026A7DCA00000001

> <PUBCHEM_MMFF94_ENERGY>
98.4959

> <PUBCHEM_FEATURE_SELFOVERLAP>
47.268

> <PUBCHEM_SHAPE_FINGERPRINT>
10483366 6 18264468673499871927
11014199 57 18122347045454423322
11049842 53 17035880740889669756
11069576 57 16974759417302849567
11524674 6 18048583833976929854
11552529 35 18409726262198242736
11578080 2 17896303886853870781
12156800 1 15150891345986901320
12422481 6 17682992914890883369
12633257 1 18201455665378601705
12788726 201 18261964028502761974
13004483 165 18336261361764149179
13631057 29 18334296505000726316
14020679 6 17844531006801171449
14068700 675 18200870807324517207
14674994 50 18335403691223513927
14844126 61 18335698334411769714
15927050 60 17837209277984317405
16728300 4 17679294179070377403
19319366 153 16525872706132011685
19930381 70 17474667248548217049
20511986 3 17531519881170139144
20775438 99 16757703680835419495
20775530 9 18051415368070463023
21421861 104 17115250602906689987
23728640 28 18335701585812645769
3027735 51 18269260293101511335
35225 105 18189876665539817405
4409770 3 18335414621577580676
463206 1 18118122712742219667
484985 159 18261659390403622086
508706 21 18340493253223727382
5265222 85 18192169104893311556
9981440 41 17977099068053707065

> <PUBCHEM_SHAPE_MULTIPOLES>
584.83
8.46
5.93
1.69
15.48
5.75
-0.03
3.49
-2.25
-7.01
1.45
-0.15
-0.51
-0.38

> <PUBCHEM_SHAPE_SELFOVERLAP>
1293.693

> <PUBCHEM_SHAPE_VOLUME>
306.8

> <PUBCHEM_COORDINATE_TYPE>
2
5
10

$$$$
