44716470
  -OEChem-12032416163D

 72 77  0     1  0  0  0  0  0999 V2000
    0.0927    6.7532    1.4891 F   0  0  0  0  0  0  0  0  0  0  0  0
    3.6524    1.8407   -2.2351 O   0  0  0  0  0  0  0  0  0  0  0  0
    1.6113    0.8083   -2.5590 O   0  0  0  0  0  0  0  0  0  0  0  0
   -8.8558   -1.9575   -0.7651 O   0  0  0  0  0  0  0  0  0  0  0  0
    1.1728    0.5851    0.1323 N   0  0  2  0  0  0  0  0  0  0  0  0
   -2.5681   -1.3936    0.7645 N   0  0  0  0  0  0  0  0  0  0  0  0
    2.5240   -2.9190    0.0727 N   0  0  0  0  0  0  0  0  0  0  0  0
   -6.2528   -1.3293    0.1996 N   0  0  0  0  0  0  0  0  0  0  0  0
    1.0562   -0.8500   -0.2725 C   0  0  2  0  0  0  0  0  0  0  0  0
   -0.0582    1.3528   -0.1843 C   0  0  1  0  0  0  0  0  0  0  0  0
   -0.1439   -1.5142    0.4204 C   0  0  0  0  0  0  0  0  0  0  0  0
   -1.4366   -0.7754    0.0754 C   0  0  2  0  0  0  0  0  0  0  0  0
   -1.3036    0.6973    0.4602 C   0  0  0  0  0  0  0  0  0  0  0  0
    2.4388    1.2164   -0.3313 C   0  0  1  0  0  0  0  0  0  0  0  0
    2.3378   -1.5653    0.0343 C   0  0  0  0  0  0  0  0  0  0  0  0
    3.6968    0.5229    0.2510 C   0  0  0  0  0  0  0  0  0  0  0  0
    3.5548   -0.9588    0.2571 C   0  0  0  0  0  0  0  0  0  0  0  0
   -0.0174    2.8105    0.2675 C   0  0  0  0  0  0  0  0  0  0  0  0
    4.5167   -1.9817    0.4758 C   0  0  0  0  0  0  0  0  0  0  0  0
    3.8437   -3.2018    0.3555 C   0  0  0  0  0  0  0  0  0  0  0  0
    2.4911    1.2503   -1.8326 C   0  0  0  0  0  0  0  0  0  0  0  0
   -3.8198   -1.0595    0.1026 C   0  0  0  0  0  0  0  0  0  0  0  0
   -0.6616    3.7922   -0.4856 C   0  0  0  0  0  0  0  0  0  0  0  0
    0.6639    3.1609    1.4332 C   0  0  0  0  0  0  0  0  0  0  0  0
    5.8970   -1.9948    0.7603 C   0  0  0  0  0  0  0  0  0  0  0  0
   -4.9939   -1.6796    0.8542 C   0  0  0  0  0  0  0  0  0  0  0  0
    4.4868   -4.4354    0.5076 C   0  0  0  0  0  0  0  0  0  0  0  0
    6.5514   -3.2219    0.9168 C   0  0  0  0  0  0  0  0  0  0  0  0
   -0.6242    5.1241   -0.0733 C   0  0  0  0  0  0  0  0  0  0  0  0
    0.7012    4.4929    1.8456 C   0  0  0  0  0  0  0  0  0  0  0  0
    5.8552   -4.4223    0.7920 C   0  0  0  0  0  0  0  0  0  0  0  0
    0.0572    5.4744    1.0924 C   0  0  0  0  0  0  0  0  0  0  0  0
   -6.4491   -2.1305   -1.0164 C   0  0  0  0  0  0  0  0  0  0  0  0
   -7.3868   -1.5173    1.1151 C   0  0  0  0  0  0  0  0  0  0  0  0
    3.8332    1.9397   -3.6512 C   0  0  0  0  0  0  0  0  0  0  0  0
   -7.7737   -1.7557   -1.6749 C   0  0  0  0  0  0  0  0  0  0  0  0
   -8.6897   -1.1580    0.4064 C   0  0  0  0  0  0  0  0  0  0  0  0
    0.8846   -0.9477   -1.3501 H   0  0  0  0  0  0  0  0  0  0  0  0
   -0.2269    1.3478   -1.2673 H   0  0  0  0  0  0  0  0  0  0  0  0
    0.0107   -1.5303    1.5089 H   0  0  0  0  0  0  0  0  0  0  0  0
   -0.2303   -2.5618    0.1031 H   0  0  0  0  0  0  0  0  0  0  0  0
   -1.5734   -0.8547   -1.0122 H   0  0  0  0  0  0  0  0  0  0  0  0
   -2.1957    1.2575    0.1542 H   0  0  0  0  0  0  0  0  0  0  0  0
   -1.2456    0.7879    1.5549 H   0  0  0  0  0  0  0  0  0  0  0  0
    2.5030    2.2613   -0.0154 H   0  0  0  0  0  0  0  0  0  0  0  0
    3.8225    0.8485    1.2923 H   0  0  0  0  0  0  0  0  0  0  0  0
    4.6110    0.8040   -0.2827 H   0  0  0  0  0  0  0  0  0  0  0  0
   -2.4586   -2.4077    0.7681 H   0  0  0  0  0  0  0  0  0  0  0  0
    1.8074   -3.6152   -0.0796 H   0  0  0  0  0  0  0  0  0  0  0  0
   -3.9692    0.0252    0.0644 H   0  0  0  0  0  0  0  0  0  0  0  0
   -3.7826   -1.4262   -0.9285 H   0  0  0  0  0  0  0  0  0  0  0  0
   -1.1970    3.5324   -1.3948 H   0  0  0  0  0  0  0  0  0  0  0  0
    1.1521    2.4152    2.0547 H   0  0  0  0  0  0  0  0  0  0  0  0
    6.4533   -1.0671    0.8594 H   0  0  0  0  0  0  0  0  0  0  0  0
   -4.8783   -2.7677    0.9483 H   0  0  0  0  0  0  0  0  0  0  0  0
   -4.9834   -1.2736    1.8751 H   0  0  0  0  0  0  0  0  0  0  0  0
    3.9465   -5.3710    0.4091 H   0  0  0  0  0  0  0  0  0  0  0  0
    7.6155   -3.2370    1.1373 H   0  0  0  0  0  0  0  0  0  0  0  0
   -1.1259    5.8886   -0.6592 H   0  0  0  0  0  0  0  0  0  0  0  0
    1.2266    4.7654    2.7561 H   0  0  0  0  0  0  0  0  0  0  0  0
    6.3835   -5.3641    0.9166 H   0  0  0  0  0  0  0  0  0  0  0  0
   -5.6550   -1.9583   -1.7486 H   0  0  0  0  0  0  0  0  0  0  0  0
   -6.4581   -3.2006   -0.7709 H   0  0  0  0  0  0  0  0  0  0  0  0
   -7.4305   -2.5601    1.4555 H   0  0  0  0  0  0  0  0  0  0  0  0
   -7.2776   -0.8754    1.9968 H   0  0  0  0  0  0  0  0  0  0  0  0
    3.0378    2.5476   -4.0928 H   0  0  0  0  0  0  0  0  0  0  0  0
    4.7933    2.4280   -3.8381 H   0  0  0  0  0  0  0  0  0  0  0  0
    3.8528    0.9423   -4.1006 H   0  0  0  0  0  0  0  0  0  0  0  0
   -7.9502   -2.3933   -2.5471 H   0  0  0  0  0  0  0  0  0  0  0  0
   -7.7743   -0.7144   -2.0198 H   0  0  0  0  0  0  0  0  0  0  0  0
   -8.7221   -0.0963    0.1327 H   0  0  0  0  0  0  0  0  0  0  0  0
   -9.5400   -1.3555    1.0671 H   0  0  0  0  0  0  0  0  0  0  0  0
  1 32  1  0  0  0  0
  2 21  1  0  0  0  0
  2 35  1  0  0  0  0
  3 21  2  0  0  0  0
  4 36  1  0  0  0  0
  4 37  1  0  0  0  0
  5  9  1  0  0  0  0
  5 10  1  0  0  0  0
  5 14  1  0  0  0  0
  6 12  1  0  0  0  0
  6 22  1  0  0  0  0
  6 48  1  0  0  0  0
  7 15  1  0  0  0  0
  7 20  1  0  0  0  0
  7 49  1  0  0  0  0
  8 26  1  0  0  0  0
  8 33  1  0  0  0  0
  8 34  1  0  0  0  0
  9 11  1  0  0  0  0
  9 15  1  0  0  0  0
  9 38  1  0  0  0  0
 10 13  1  0  0  0  0
 10 18  1  0  0  0  0
 10 39  1  0  0  0  0
 11 12  1  0  0  0  0
 11 40  1  0  0  0  0
 11 41  1  0  0  0  0
 12 13  1  0  0  0  0
 12 42  1  0  0  0  0
 13 43  1  0  0  0  0
 13 44  1  0  0  0  0
 14 16  1  0  0  0  0
 14 21  1  0  0  0  0
 14 45  1  0  0  0  0
 15 17  2  0  0  0  0
 16 17  1  0  0  0  0
 16 46  1  0  0  0  0
 16 47  1  0  0  0  0
 17 19  1  0  0  0  0
 18 23  2  0  0  0  0
 18 24  1  0  0  0  0
 19 20  1  0  0  0  0
 19 25  2  0  0  0  0
 20 27  2  0  0  0  0
 22 26  1  0  0  0  0
 22 50  1  0  0  0  0
 22 51  1  0  0  0  0
 23 29  1  0  0  0  0
 23 52  1  0  0  0  0
 24 30  2  0  0  0  0
 24 53  1  0  0  0  0
 25 28  1  0  0  0  0
 25 54  1  0  0  0  0
 26 55  1  0  0  0  0
 26 56  1  0  0  0  0
 27 31  1  0  0  0  0
 27 57  1  0  0  0  0
 28 31  2  0  0  0  0
 28 58  1  0  0  0  0
 29 32  2  0  0  0  0
 29 59  1  0  0  0  0
 30 32  1  0  0  0  0
 30 60  1  0  0  0  0
 31 61  1  0  0  0  0
 33 36  1  0  0  0  0
 33 62  1  0  0  0  0
 33 63  1  0  0  0  0
 34 37  1  0  0  0  0
 34 64  1  0  0  0  0
 34 65  1  0  0  0  0
 35 66  1  0  0  0  0
 35 67  1  0  0  0  0
 35 68  1  0  0  0  0
 36 69  1  0  0  0  0
 36 70  1  0  0  0  0
 37 71  1  0  0  0  0
 37 72  1  0  0  0  0
M  END
> <PUBCHEM_COMPOUND_CID>
44716470

> <PUBCHEM_CONFORMER_RMSD>
1

> <PUBCHEM_CONFORMER_DIVERSEORDER>
1
32
36
22
27
25
28
35
37
33
43
5
14
34
12
9
44
41
10
11
4
19
42
20
23
6
7
17
40
18
21
2
13
31
30
24
29
38
16
15
8
39
3
26

> <PUBCHEM_MMFF94_PARTIAL_CHARGES>
44
1 -0.19
10 0.41
12 0.27
14 0.33
15 -0.33
16 0.18
17 -0.18
18 -0.14
2 -0.43
20 -0.15
21 0.66
22 0.27
23 -0.15
24 -0.15
25 -0.15
26 0.27
27 -0.15
28 -0.15
29 -0.15
3 -0.57
30 -0.15
31 -0.15
32 0.19
33 0.27
34 0.27
35 0.28
36 0.28
37 0.28
4 -0.56
48 0.36
49 0.27
5 -0.81
52 0.15
53 0.15
54 0.15
57 0.15
58 0.15
59 0.15
6 -0.9
60 0.15
61 0.15
7 0.03
8 -0.81
9 0.45

> <PUBCHEM_EFFECTIVE_ROTOR_COUNT>
9.4

> <PUBCHEM_PHARMACOPHORE_FEATURES>
14
1 3 acceptor
1 4 acceptor
1 5 cation
1 6 cation
1 6 donor
1 7 cation
1 7 donor
1 8 cation
5 7 15 17 19 20 rings
6 18 23 24 29 30 32 rings
6 19 20 25 27 28 31 rings
6 4 8 33 34 36 37 rings
6 5 9 10 11 12 13 rings
6 5 9 14 15 16 17 rings

> <PUBCHEM_HEAVY_ATOM_COUNT>
37

> <PUBCHEM_ATOM_DEF_STEREO_COUNT>
4

> <PUBCHEM_ATOM_UDEF_STEREO_COUNT>
0

> <PUBCHEM_BOND_DEF_STEREO_COUNT>
0

> <PUBCHEM_BOND_UDEF_STEREO_COUNT>
0

> <PUBCHEM_ISOTOPIC_ATOM_COUNT>
0

> <PUBCHEM_COMPONENT_COUNT>
1

> <PUBCHEM_CACTVS_TAUTO_COUNT>
1

> <PUBCHEM_CONFORMER_ID>
02AA51B600000001

> <PUBCHEM_MMFF94_ENERGY>
77.8047

> <PUBCHEM_FEATURE_SELFOVERLAP>
71.243

> <PUBCHEM_SHAPE_FINGERPRINT>
10411042 1 18411696548006218907
10985338 8 16664307816954239109
11093857 51 17608945513843729853
11115154 58 18335136454495775929
11297750 10 18335125489318369949
11456790 92 18335994095420216243
11720765 8 18339357565323566633
12293681 160 17832742275842185908
12342043 65 17388000779047727819
12677640 9 18050847719950249872
13008946 170 18193830664114657989
13248334 5 18196084667130911505
133893 2 16735272295198097620
13540713 5 18191889862782902412
13835254 42 18341046307651080744
14068700 675 18262799562713376082
14400156 413 18261945345078975093
15351339 4 17677603164789722315
15400415 2 17402609049242719321
15419008 47 17967805034335923727
15950262 2 14926208614615716604
15968369 26 17900534880764093817
16096371 109 17983291823096054057
17980427 26 17838606009284666837
18365409 1 17833551198140216613
19301679 30 18269837506320211934
21133410 230 18339628032521267672
22311459 1 18267581501722513977
23559900 14 18336541746500142907
32027 91 18337106878318101451
3534868 343 18336559226426070422
4015057 19 18335423504409271355
4408954 87 17195751965521377017
44317340 157 18193838374646824291
46194498 28 17530679935326583487
5219985 9 18412824664316815283
58083652 198 18408887330805875555
59521099 67 18342449370841506729
6697151 62 18337092545869803299
70251023 43 18334295323362818762

> <PUBCHEM_SHAPE_MULTIPOLES>
716.64
18.18
7.85
1.85
44.29
12.58
1.86
-31.53
1.11
-5.61
-3.69
-1.33
1.87
-3.47

> <PUBCHEM_SHAPE_SELFOVERLAP>
1557.122

> <PUBCHEM_SHAPE_VOLUME>
391.8

> <PUBCHEM_COORDINATE_TYPE>
2
5
10

$$$$
