45784318
  -OEChem-12032416343D

 41 44  0     1  0  0  0  0  0999 V2000
   -6.8483    1.9789    0.5146 F   0  0  0  0  0  0  0  0  0  0  0  0
   -8.0444   -0.4797    0.4805 F   0  0  0  0  0  0  0  0  0  0  0  0
   -1.7541   -0.4037   -0.1564 N   0  0  1  0  0  0  0  0  0  0  0  0
    2.9219   -1.1984    0.5236 N   0  0  0  0  0  0  0  0  0  0  0  0
    2.2850    0.8460   -0.0719 N   0  0  0  0  0  0  0  0  0  0  0  0
    8.8796   -0.5433   -0.0870 N   0  0  0  0  0  0  0  0  0  0  0  0
    0.4487   -0.7720    0.5586 C   0  0  1  0  0  0  0  0  0  0  0  0
   -0.3085    0.0415    1.6226 C   0  0  0  0  0  0  0  0  0  0  0  0
   -0.4209   -0.6681   -0.7015 C   0  0  0  0  0  0  0  0  0  0  0  0
   -1.5393    0.5801    0.9048 C   0  0  0  0  0  0  0  0  0  0  0  0
    1.8777   -0.3385    0.3259 C   0  0  0  0  0  0  0  0  0  0  0  0
   -2.6848    0.0693   -1.1704 C   0  0  0  0  0  0  0  0  0  0  0  0
   -4.1169   -0.0776   -0.7293 C   0  0  0  0  0  0  0  0  0  0  0  0
    4.0802   -0.5241    0.2339 C   0  0  0  0  0  0  0  0  0  0  0  0
    3.6561    0.7494   -0.1351 C   0  0  0  0  0  0  0  0  0  0  0  0
   -4.8333    1.0407   -0.3030 C   0  0  0  0  0  0  0  0  0  0  0  0
   -4.7272   -1.3318   -0.7471 C   0  0  0  0  0  0  0  0  0  0  0  0
    5.4216   -0.9070    0.2622 C   0  0  0  0  0  0  0  0  0  0  0  0
    4.6134    1.7108   -0.5007 C   0  0  0  0  0  0  0  0  0  0  0  0
    6.3609    0.0624   -0.1047 C   0  0  0  0  0  0  0  0  0  0  0  0
    5.9661    1.3487   -0.4795 C   0  0  0  0  0  0  0  0  0  0  0  0
   -6.1602    0.9049    0.1054 C   0  0  0  0  0  0  0  0  0  0  0  0
   -6.0540   -1.4675   -0.3384 C   0  0  0  0  0  0  0  0  0  0  0  0
   -6.7706   -0.3491    0.0877 C   0  0  0  0  0  0  0  0  0  0  0  0
    7.7512   -0.2719   -0.0949 C   0  0  0  0  0  0  0  0  0  0  0  0
    0.4527   -1.8207    0.8900 H   0  0  0  0  0  0  0  0  0  0  0  0
   -0.6108   -0.6231    2.4417 H   0  0  0  0  0  0  0  0  0  0  0  0
    0.2869    0.8523    2.0556 H   0  0  0  0  0  0  0  0  0  0  0  0
   -0.0854    0.1500   -1.3530 H   0  0  0  0  0  0  0  0  0  0  0  0
   -0.3956   -1.5985   -1.2793 H   0  0  0  0  0  0  0  0  0  0  0  0
   -2.3903    0.6555    1.5888 H   0  0  0  0  0  0  0  0  0  0  0  0
   -1.3226    1.5779    0.5018 H   0  0  0  0  0  0  0  0  0  0  0  0
   -2.4721    1.1023   -1.4776 H   0  0  0  0  0  0  0  0  0  0  0  0
   -2.5736   -0.5295   -2.0856 H   0  0  0  0  0  0  0  0  0  0  0  0
    2.8562   -2.1605    0.8288 H   0  0  0  0  0  0  0  0  0  0  0  0
   -4.3696    2.0233   -0.2828 H   0  0  0  0  0  0  0  0  0  0  0  0
   -4.1797   -2.2108   -1.0770 H   0  0  0  0  0  0  0  0  0  0  0  0
    5.7122   -1.9105    0.5560 H   0  0  0  0  0  0  0  0  0  0  0  0
    4.3166    2.7129   -0.7935 H   0  0  0  0  0  0  0  0  0  0  0  0
    6.7079    2.0932   -0.7625 H   0  0  0  0  0  0  0  0  0  0  0  0
   -6.5294   -2.4438   -0.3519 H   0  0  0  0  0  0  0  0  0  0  0  0
  1 22  1  0  0  0  0
  2 24  1  0  0  0  0
  3  9  1  0  0  0  0
  3 10  1  0  0  0  0
  3 12  1  0  0  0  0
  4 11  1  0  0  0  0
  4 14  1  0  0  0  0
  4 35  1  0  0  0  0
  5 11  2  0  0  0  0
  5 15  1  0  0  0  0
  6 25  3  0  0  0  0
  7  8  1  0  0  0  0
  7  9  1  0  0  0  0
  7 11  1  0  0  0  0
  7 26  1  0  0  0  0
  8 10  1  0  0  0  0
  8 27  1  0  0  0  0
  8 28  1  0  0  0  0
  9 29  1  0  0  0  0
  9 30  1  0  0  0  0
 10 31  1  0  0  0  0
 10 32  1  0  0  0  0
 12 13  1  0  0  0  0
 12 33  1  0  0  0  0
 12 34  1  0  0  0  0
 13 16  2  0  0  0  0
 13 17  1  0  0  0  0
 14 15  2  0  0  0  0
 14 18  1  0  0  0  0
 15 19  1  0  0  0  0
 16 22  1  0  0  0  0
 16 36  1  0  0  0  0
 17 23  2  0  0  0  0
 17 37  1  0  0  0  0
 18 20  2  0  0  0  0
 18 38  1  0  0  0  0
 19 21  2  0  0  0  0
 19 39  1  0  0  0  0
 20 21  1  0  0  0  0
 20 25  1  0  0  0  0
 21 40  1  0  0  0  0
 22 24  2  0  0  0  0
 23 24  1  0  0  0  0
 23 41  1  0  0  0  0
M  END
> <PUBCHEM_COMPOUND_CID>
45784318

> <PUBCHEM_CONFORMER_RMSD>
0.8

> <PUBCHEM_CONFORMER_DIVERSEORDER>
1
75
84
65
50
55
87
15
49
61
28
3
57
68
30
56
2
21
58
60
71
77
79
51
73
74
53
37
63
64
88
44
86
26
33
81
59
66
45
5
80
69
67
7
52
72
24
46
9
76
39
47
62
12
31
43
8
78
83
25
27
70
40
10
42
17
4
20
11
34
36
22
14
54
23
18
32
48
35
41
6
85
16
38
13
29
82
19

> <PUBCHEM_MMFF94_PARTIAL_CHARGES>
31
1 -0.19
10 0.27
11 0.01
12 0.41
13 -0.14
14 -0.15
15 0.23
16 -0.15
17 -0.15
18 -0.15
19 -0.15
2 -0.19
20 0.07
21 -0.15
22 0.19
23 -0.15
24 0.19
25 0.48
3 -0.81
35 0.27
36 0.15
37 0.15
38 0.15
39 0.15
4 0.03
40 0.15
41 0.15
5 -0.57
6 -0.56
7 0.18
9 0.27

> <PUBCHEM_EFFECTIVE_ROTOR_COUNT>
4

> <PUBCHEM_PHARMACOPHORE_FEATURES>
8
1 3 cation
1 4 donor
1 6 acceptor
3 4 5 11 cation
5 3 7 8 9 10 rings
5 4 5 11 14 15 rings
6 13 16 17 22 23 24 rings
6 14 15 18 19 20 21 rings

> <PUBCHEM_HEAVY_ATOM_COUNT>
25

> <PUBCHEM_ATOM_DEF_STEREO_COUNT>
1

> <PUBCHEM_ATOM_UDEF_STEREO_COUNT>
0

> <PUBCHEM_BOND_DEF_STEREO_COUNT>
0

> <PUBCHEM_BOND_UDEF_STEREO_COUNT>
0

> <PUBCHEM_ISOTOPIC_ATOM_COUNT>
0

> <PUBCHEM_COMPONENT_COUNT>
1

> <PUBCHEM_CACTVS_TAUTO_COUNT>
2

> <PUBCHEM_CONFORMER_ID>
02BA9CFE00000001

> <PUBCHEM_MMFF94_ENERGY>
45.4434

> <PUBCHEM_FEATURE_SELFOVERLAP>
40.704

> <PUBCHEM_SHAPE_FINGERPRINT>
10 15 13262398877680661540
10066227 49 17845660244762577814
10299344 5 18409728469405406983
10595046 47 18408038503212088843
106641 1 12468364557002203460
10730089 173 18273496758669090609
11315181 36 16702021997937016947
11408170 108 17916870094451724790
11524674 6 16272207522572605823
11646440 116 16515406261367689860
11719270 70 17703790297731840278
12091667 2 17989202655872614375
12166972 35 18187365450034419580
12236239 1 18413669118994687276
12643181 29 14979951484413213716
12730499 353 17530963566745914170
12838862 33 14189286020513207348
13533116 47 16878493550055145720
14251752 14 17989487420161264297
14251764 18 17385438809221376522
14251764 46 18060137640143762063
14294032 229 17702115663664966752
14849402 71 18041849535457772037
14856354 85 18272652381410717791
14933364 13 18410012139300147565
15183329 4 18335695040013344325
15419008 47 15068616106446092527
18006028 8 13183020722103047514
18335252 98 18410860958161600123
19489759 90 8574714611768766351
19841028 212 18271244903622925366
20238998 120 13614522961218495674
21033648 29 17458908275385528024
21095086 128 18261109690614030863
21150785 3 18407760339945404594
21267235 1 18408323276987544012
21315763 28 18410574006679178197
21792961 116 17775568611425795355
22224240 67 15647053780634916944
23035841 295 18130787875971701167
23198884 109 18334575754894155859
23536379 177 18411135835867583787
23569943 247 16952518092400634018
23622692 88 13840267004846701678
29717793 49 18059861666993751604
3004659 81 18342454851018796376
314173 85 14908183066413013019
335352 9 18187088361131278366
3545911 37 17603301561965714382
397830 11 15286221612361846141
4073 2 17822858696715326930
4098825 35 18408884001604612788
4325135 7 18333730226146983231
4339292 15 16844998135654980223
5283156 175 17560805416415017158
5758199 1 17894631456658139027
59682541 35 15719399460089864697
59755656 215 15841558453014720116
59755656 520 17458621246219811226
9663363 56 15913325788498610115

> <PUBCHEM_SHAPE_MULTIPOLES>
480.02
24.52
1.39
0.95
3.74
0.32
0.11
0.39
-1.37
-0.56
-0.06
-0.46
0
-0.95

> <PUBCHEM_SHAPE_SELFOVERLAP>
1058.298

> <PUBCHEM_SHAPE_VOLUME>
261.8

> <PUBCHEM_COORDINATE_TYPE>
2
5
10

$$$$
