7161700
  -OEChem-12032416353D

 42 43  0     1  0  0  0  0  0999 V2000
    1.6441    2.4874    0.1498 O   0  0  0  0  0  0  0  0  0  0  0  0
    3.3471   -1.7938    0.0368 O   0  0  0  0  0  0  0  0  0  0  0  0
   -3.5320   -1.7960   -0.0522 O   0  0  0  0  0  0  0  0  0  0  0  0
    1.2254   -0.9322    0.5213 N   0  0  0  0  0  0  0  0  0  0  0  0
   -1.4636   -0.7580   -0.2150 N   0  0  0  0  0  0  0  0  0  0  0  0
    2.8593    0.4942    0.0366 N   0  0  0  0  0  0  0  0  0  0  0  0
   -3.4585    0.4956   -0.0001 N   0  0  0  0  0  0  0  0  0  0  0  0
    0.5803    0.3564    0.6098 C   0  0  2  0  0  0  0  0  0  0  0  0
   -0.6015    0.4369   -0.3487 C   0  0  0  0  0  0  0  0  0  0  0  0
    0.4160   -2.1273    0.6550 C   0  0  0  0  0  0  0  0  0  0  0  0
   -0.7575   -2.0482   -0.3172 C   0  0  0  0  0  0  0  0  0  0  0  0
    1.7354    1.2701    0.2384 C   0  0  0  0  0  0  0  0  0  0  0  0
    2.5770   -0.8539    0.1868 C   0  0  0  0  0  0  0  0  0  0  0  0
    4.1561    1.0320   -0.3239 C   0  0  0  0  0  0  0  0  0  0  0  0
   -2.8634   -0.7575   -0.0849 C   0  0  0  0  0  0  0  0  0  0  0  0
    4.5941    0.4939   -1.6799 C   0  0  0  0  0  0  0  0  0  0  0  0
    5.1849    0.7150    0.7543 C   0  0  0  0  0  0  0  0  0  0  0  0
   -4.8890    0.6612    0.1308 C   0  0  0  0  0  0  0  0  0  0  0  0
   -5.5436    0.7162   -1.2434 C   0  0  0  0  0  0  0  0  0  0  0  0
   -5.2106    1.9078    0.9457 C   0  0  0  0  0  0  0  0  0  0  0  0
    0.2851    0.5228    1.6512 H   0  0  0  0  0  0  0  0  0  0  0  0
   -1.1252    1.3767   -0.1803 H   0  0  0  0  0  0  0  0  0  0  0  0
   -0.2584    0.4528   -1.3912 H   0  0  0  0  0  0  0  0  0  0  0  0
    0.0564   -2.1625    1.6892 H   0  0  0  0  0  0  0  0  0  0  0  0
    1.0249   -3.0163    0.4655 H   0  0  0  0  0  0  0  0  0  0  0  0
   -0.3976   -2.1236   -1.3507 H   0  0  0  0  0  0  0  0  0  0  0  0
   -1.4382   -2.8873   -0.1447 H   0  0  0  0  0  0  0  0  0  0  0  0
    4.0673    2.1221   -0.4012 H   0  0  0  0  0  0  0  0  0  0  0  0
    4.7857   -0.5834   -1.6629 H   0  0  0  0  0  0  0  0  0  0  0  0
    3.8292    0.6842   -2.4408 H   0  0  0  0  0  0  0  0  0  0  0  0
    5.5181    0.9846   -2.0048 H   0  0  0  0  0  0  0  0  0  0  0  0
    6.1429    1.1931    0.5239 H   0  0  0  0  0  0  0  0  0  0  0  0
    5.3671   -0.3600    0.8523 H   0  0  0  0  0  0  0  0  0  0  0  0
    4.8513    1.0846    1.7304 H   0  0  0  0  0  0  0  0  0  0  0  0
   -2.9267    1.3399   -0.1554 H   0  0  0  0  0  0  0  0  0  0  0  0
   -5.2897   -0.2074    0.6670 H   0  0  0  0  0  0  0  0  0  0  0  0
   -6.6298    0.8225   -1.1557 H   0  0  0  0  0  0  0  0  0  0  0  0
   -5.1642    1.5604   -1.8300 H   0  0  0  0  0  0  0  0  0  0  0  0
   -5.3395   -0.1972   -1.8128 H   0  0  0  0  0  0  0  0  0  0  0  0
   -4.7504    1.8513    1.9383 H   0  0  0  0  0  0  0  0  0  0  0  0
   -6.2914    2.0211    1.0789 H   0  0  0  0  0  0  0  0  0  0  0  0
   -4.8303    2.8121    0.4575 H   0  0  0  0  0  0  0  0  0  0  0  0
  1 12  2  0  0  0  0
  2 13  2  0  0  0  0
  3 15  2  0  0  0  0
  4  8  1  0  0  0  0
  4 10  1  0  0  0  0
  4 13  1  0  0  0  0
  5  9  1  0  0  0  0
  5 11  1  0  0  0  0
  5 15  1  0  0  0  0
  6 12  1  0  0  0  0
  6 13  1  0  0  0  0
  6 14  1  0  0  0  0
  7 15  1  0  0  0  0
  7 18  1  0  0  0  0
  7 35  1  0  0  0  0
  8  9  1  0  0  0  0
  8 12  1  0  0  0  0
  8 21  1  0  0  0  0
  9 22  1  0  0  0  0
  9 23  1  0  0  0  0
 10 11  1  0  0  0  0
 10 24  1  0  0  0  0
 10 25  1  0  0  0  0
 11 26  1  0  0  0  0
 11 27  1  0  0  0  0
 14 16  1  0  0  0  0
 14 17  1  0  0  0  0
 14 28  1  0  0  0  0
 16 29  1  0  0  0  0
 16 30  1  0  0  0  0
 16 31  1  0  0  0  0
 17 32  1  0  0  0  0
 17 33  1  0  0  0  0
 17 34  1  0  0  0  0
 18 19  1  0  0  0  0
 18 20  1  0  0  0  0
 18 36  1  0  0  0  0
 19 37  1  0  0  0  0
 19 38  1  0  0  0  0
 19 39  1  0  0  0  0
 20 40  1  0  0  0  0
 20 41  1  0  0  0  0
 20 42  1  0  0  0  0
M  END
> <PUBCHEM_COMPOUND_CID>
7161700

> <PUBCHEM_CONFORMER_RMSD>
0.8

> <PUBCHEM_CONFORMER_DIVERSEORDER>
1
3
4
7
10
11
5
9
6
2
8
12

> <PUBCHEM_MMFF94_PARTIAL_CHARGES>
17
1 -0.57
10 0.3
11 0.3
12 0.57
13 0.69
14 0.3
15 0.69
18 0.3
2 -0.57
3 -0.57
35 0.37
4 -0.66
5 -0.66
6 -0.42
7 -0.73
8 0.36
9 0.3

> <PUBCHEM_EFFECTIVE_ROTOR_COUNT>
5

> <PUBCHEM_PHARMACOPHORE_FEATURES>
8
1 1 acceptor
1 2 acceptor
1 3 acceptor
1 7 donor
3 14 16 17 hydrophobe
3 18 19 20 hydrophobe
5 4 6 8 12 13 rings
6 4 5 8 9 10 11 rings

> <PUBCHEM_HEAVY_ATOM_COUNT>
20

> <PUBCHEM_ATOM_DEF_STEREO_COUNT>
1

> <PUBCHEM_ATOM_UDEF_STEREO_COUNT>
0

> <PUBCHEM_BOND_DEF_STEREO_COUNT>
0

> <PUBCHEM_BOND_UDEF_STEREO_COUNT>
0

> <PUBCHEM_ISOTOPIC_ATOM_COUNT>
0

> <PUBCHEM_COMPONENT_COUNT>
1

> <PUBCHEM_CACTVS_TAUTO_COUNT>
2

> <PUBCHEM_CONFORMER_ID>
006D476400000001

> <PUBCHEM_MMFF94_ENERGY>
30.3271

> <PUBCHEM_FEATURE_SELFOVERLAP>
40.714

> <PUBCHEM_SHAPE_FINGERPRINT>
11089746 13 17917702517992348616
11471102 20 18410006615803406223
11796584 16 14764352608851826661
12644460 14 17968371260647648394
12670543 26 18270975578659185230
14787075 74 8069733092394814639
14790565 3 18409173194458570085
15196674 1 18410291419279856363
1601671 61 18407760335112588124
16945 1 18337960116256795730
17834072 8 18201725054412007332
18186145 218 18272091633989327593
18222031 100 9655577400871082136
19784866 9 18040427776938870258
200 152 9223232949018945037
20612939 158 18335138644164465279
20645477 70 18342175518608917447
21150785 3 16701730644387838725
212847 35 18334293154261571020
21421861 104 17895744090065255978
21637258 2 15410629025936694228
231179 274 18187641384481478463
23402539 116 18342449383314483932
23402655 69 18342455954176713775
23559900 14 18273217526050053480
25 1 18334573564149955690
293599 30 18410294713514114304
3004659 81 18335423427110188094
335352 9 18410572843028189606
34934 24 18341888628279345762
3545911 37 18410292532314247745
4072396 5 18338503197849683626
4340502 62 16370445540312633904
474 4 18259985994046204849
4990 188 18130795589606286526
5104073 3 18335135401485315131
543358 83 18410857629171113874
633830 44 18341890843860128092
7495541 125 13334748945890417181
7832392 63 18341326807443296470

> <PUBCHEM_SHAPE_MULTIPOLES>
374.06
11.77
2.17
0.99
7.33
0.43
-0.26
-5.58
-1.49
0.3
0.3
-0.19
-0.2
-0.48

> <PUBCHEM_SHAPE_SELFOVERLAP>
764.924

> <PUBCHEM_SHAPE_VOLUME>
217.9

> <PUBCHEM_COORDINATE_TYPE>
2
5
10

$$$$
