11884054
  -OEChem-12032416373D

 54 57  0     1  0  0  0  0  0999 V2000
   -7.7847   -3.0348   -1.3785 F   0  0  0  0  0  0  0  0  0  0  0  0
   -8.1285   -3.0840    0.7623 F   0  0  0  0  0  0  0  0  0  0  0  0
   -6.4235   -4.1335   -0.0866 F   0  0  0  0  0  0  0  0  0  0  0  0
    0.3712    1.8252    1.0377 O   0  0  0  0  0  0  0  0  0  0  0  0
    0.0623    3.9104   -1.1895 O   0  0  0  0  0  0  0  0  0  0  0  0
    2.9009    2.0227   -0.0885 O   0  0  0  0  0  0  0  0  0  0  0  0
   -4.3312    2.7137    1.0144 O   0  0  0  0  0  0  0  0  0  0  0  0
    3.3753    0.2366   -1.4356 O   0  0  0  0  0  0  0  0  0  0  0  0
    8.6473   -3.1593    0.3598 O   0  0  0  0  0  0  0  0  0  0  0  0
   -2.5637    1.6309   -0.0259 N   0  0  0  0  0  0  0  0  0  0  0  0
    4.7017    0.7635    0.4200 N   0  0  0  0  0  0  0  0  0  0  0  0
   -0.5571    2.6220   -0.9937 C   0  0  1  0  0  0  0  0  0  0  0  0
    0.4965    1.7152   -0.3900 C   0  0  1  0  0  0  0  0  0  0  0  0
   -1.6156    2.7130    0.0806 C   0  0  2  0  0  0  0  0  0  0  0  0
    1.7817    2.3315   -0.8881 C   0  0  1  0  0  0  0  0  0  0  0  0
   -0.7932    2.6040    1.3531 C   0  0  0  0  0  0  0  0  0  0  0  0
    1.4569    3.8082   -0.8664 C   0  0  0  0  0  0  0  0  0  0  0  0
   -3.8611    1.7250    0.4576 C   0  0  0  0  0  0  0  0  0  0  0  0
    3.6498    0.9255   -0.4607 C   0  0  0  0  0  0  0  0  0  0  0  0
   -4.7057    0.5138    0.2943 C   0  0  0  0  0  0  0  0  0  0  0  0
   -5.7545    0.2706    1.1812 C   0  0  0  0  0  0  0  0  0  0  0  0
   -4.4502   -0.3801   -0.7456 C   0  0  0  0  0  0  0  0  0  0  0  0
    5.7049   -0.2321    0.4038 C   0  0  0  0  0  0  0  0  0  0  0  0
   -6.5476   -0.8667    1.0283 C   0  0  0  0  0  0  0  0  0  0  0  0
   -5.2432   -1.5173   -0.8985 C   0  0  0  0  0  0  0  0  0  0  0  0
   -6.2919   -1.7606   -0.0115 C   0  0  0  0  0  0  0  0  0  0  0  0
    6.6973   -0.2382    1.3840 C   0  0  0  0  0  0  0  0  0  0  0  0
    5.7016   -1.2094   -0.5915 C   0  0  0  0  0  0  0  0  0  0  0  0
   -7.1408   -2.9755   -0.1753 C   0  0  0  0  0  0  0  0  0  0  0  0
    7.6866   -1.2215    1.3688 C   0  0  0  0  0  0  0  0  0  0  0  0
    6.6909   -2.1926   -0.6068 C   0  0  0  0  0  0  0  0  0  0  0  0
    7.6833   -2.1987    0.3733 C   0  0  0  0  0  0  0  0  0  0  0  0
    8.5844   -4.1277   -0.6863 C   0  0  0  0  0  0  0  0  0  0  0  0
   -0.9221    2.2771   -1.9664 H   0  0  0  0  0  0  0  0  0  0  0  0
    0.3840    0.6596   -0.6534 H   0  0  0  0  0  0  0  0  0  0  0  0
   -2.1611    3.6627    0.0616 H   0  0  0  0  0  0  0  0  0  0  0  0
    1.9390    2.0484   -1.9381 H   0  0  0  0  0  0  0  0  0  0  0  0
   -1.3252    2.1366    2.1873 H   0  0  0  0  0  0  0  0  0  0  0  0
   -0.4431    3.5900    1.6777 H   0  0  0  0  0  0  0  0  0  0  0  0
    2.0450    4.3745   -1.5949 H   0  0  0  0  0  0  0  0  0  0  0  0
    1.6258    4.2571    0.1188 H   0  0  0  0  0  0  0  0  0  0  0  0
   -2.2148    0.7451   -0.3772 H   0  0  0  0  0  0  0  0  0  0  0  0
    4.7653    1.4428    1.1743 H   0  0  0  0  0  0  0  0  0  0  0  0
   -5.9667    0.9527    2.0002 H   0  0  0  0  0  0  0  0  0  0  0  0
   -3.6638   -0.2122   -1.4755 H   0  0  0  0  0  0  0  0  0  0  0  0
   -7.3592   -1.0396    1.7296 H   0  0  0  0  0  0  0  0  0  0  0  0
   -5.0412   -2.2048   -1.7157 H   0  0  0  0  0  0  0  0  0  0  0  0
    6.7112    0.5173    2.1654 H   0  0  0  0  0  0  0  0  0  0  0  0
    4.9655   -1.2675   -1.3813 H   0  0  0  0  0  0  0  0  0  0  0  0
    8.4569   -1.2214    2.1353 H   0  0  0  0  0  0  0  0  0  0  0  0
    6.6297   -2.9221   -1.4074 H   0  0  0  0  0  0  0  0  0  0  0  0
    7.6702   -4.7278   -0.6247 H   0  0  0  0  0  0  0  0  0  0  0  0
    8.7121   -3.6653   -1.6710 H   0  0  0  0  0  0  0  0  0  0  0  0
    9.4265   -4.8128   -0.5434 H   0  0  0  0  0  0  0  0  0  0  0  0
  1 29  1  0  0  0  0
  2 29  1  0  0  0  0
  3 29  1  0  0  0  0
  4 13  1  0  0  0  0
  4 16  1  0  0  0  0
  5 12  1  0  0  0  0
  5 17  1  0  0  0  0
  6 15  1  0  0  0  0
  6 19  1  0  0  0  0
  7 18  2  0  0  0  0
  8 19  2  0  0  0  0
  9 32  1  0  0  0  0
  9 33  1  0  0  0  0
 10 14  1  0  0  0  0
 10 18  1  0  0  0  0
 10 42  1  0  0  0  0
 11 19  1  0  0  0  0
 11 23  1  0  0  0  0
 11 43  1  0  0  0  0
 12 13  1  0  0  0  0
 12 14  1  0  0  0  0
 12 34  1  0  0  0  0
 13 15  1  0  0  0  0
 13 35  1  0  0  0  0
 14 16  1  0  0  0  0
 14 36  1  0  0  0  0
 15 17  1  0  0  0  0
 15 37  1  0  0  0  0
 16 38  1  0  0  0  0
 16 39  1  0  0  0  0
 17 40  1  0  0  0  0
 17 41  1  0  0  0  0
 18 20  1  0  0  0  0
 20 21  2  0  0  0  0
 20 22  1  0  0  0  0
 21 24  1  0  0  0  0
 21 44  1  0  0  0  0
 22 25  2  0  0  0  0
 22 45  1  0  0  0  0
 23 27  2  0  0  0  0
 23 28  1  0  0  0  0
 24 26  2  0  0  0  0
 24 46  1  0  0  0  0
 25 26  1  0  0  0  0
 25 47  1  0  0  0  0
 26 29  1  0  0  0  0
 27 30  1  0  0  0  0
 27 48  1  0  0  0  0
 28 31  2  0  0  0  0
 28 49  1  0  0  0  0
 30 32  2  0  0  0  0
 30 50  1  0  0  0  0
 31 32  1  0  0  0  0
 31 51  1  0  0  0  0
 33 52  1  0  0  0  0
 33 53  1  0  0  0  0
 33 54  1  0  0  0  0
M  END
> <PUBCHEM_COMPOUND_CID>
11884054

> <PUBCHEM_CONFORMER_RMSD>
1

> <PUBCHEM_CONFORMER_DIVERSEORDER>
1
22
2
15
27
16
17
30
34
8
40
29
14
32
26
13
33
4
18
9
23
19
36
7
38
39
35
31
20
12
5
21
37
11
6
25
28
24
3
10

> <PUBCHEM_MMFF94_PARTIAL_CHARGES>
43
1 -0.34
10 -0.73
11 -0.55
12 0.28
13 0.28
14 0.3
15 0.28
16 0.28
17 0.28
18 0.54
19 0.78
2 -0.34
20 0.09
21 -0.15
22 -0.15
23 0.12
24 -0.15
25 -0.15
26 -0.14
27 -0.15
28 -0.15
29 1.16
3 -0.34
30 -0.15
31 -0.15
32 0.08
33 0.28
4 -0.56
42 0.37
43 0.37
44 0.15
45 0.15
46 0.15
47 0.15
48 0.15
49 0.15
5 -0.56
50 0.15
51 0.15
6 -0.43
7 -0.57
8 -0.57
9 -0.36

> <PUBCHEM_EFFECTIVE_ROTOR_COUNT>
10.2

> <PUBCHEM_PHARMACOPHORE_FEATURES>
11
1 10 donor
1 11 donor
1 4 acceptor
1 5 acceptor
1 7 acceptor
1 8 acceptor
1 9 acceptor
5 4 12 13 14 16 rings
5 5 12 13 15 17 rings
6 20 21 22 24 25 26 rings
6 23 27 28 30 31 32 rings

> <PUBCHEM_HEAVY_ATOM_COUNT>
33

> <PUBCHEM_ATOM_DEF_STEREO_COUNT>
4

> <PUBCHEM_ATOM_UDEF_STEREO_COUNT>
0

> <PUBCHEM_BOND_DEF_STEREO_COUNT>
0

> <PUBCHEM_BOND_UDEF_STEREO_COUNT>
0

> <PUBCHEM_ISOTOPIC_ATOM_COUNT>
0

> <PUBCHEM_COMPONENT_COUNT>
1

> <PUBCHEM_CACTVS_TAUTO_COUNT>
4

> <PUBCHEM_CONFORMER_ID>
00B5561600000001

> <PUBCHEM_MMFF94_ENERGY>
98.0333

> <PUBCHEM_FEATURE_SELFOVERLAP>
56.54

> <PUBCHEM_SHAPE_FINGERPRINT>
10100884 174 18335138687874528082
10190206 1 12685089254971612190
10258705 36 17983865485057341406
10669705 251 18272092656762049246
11463208 1 17983301431091583710
11475781 23 8790589439427476744
11497681 19 18335706018994816748
11607047 403 18053658363739944248
117089 54 18408046225131394163
11828042 74 17896877664830834605
11963148 33 18116710712943779634
12013929 112 17458888402798755575
12120059 9 18265309799009000488
12717326 120 18271537416501641446
13165053 103 18201988925288489367
13248334 5 18047757288785876196
1361 4 18264491861047042449
13627175 4 18335436672029706299
13782708 43 18411979131633300136
13944108 23 8862676694034829518
14344974 204 18412265000092639606
14359421 15 17676196966521323907
14428016 167 18408884027221838706
14664723 55 11025785471369855583
14671636 106 18410294688894362478
15131766 46 10015594861552314497
15152005 1 18410575106154896463
15152005 304 18410023138723091786
15152005 77 18272927211372149159
15183329 4 13695873584858817348
15347591 1 18410855473167356697
15803439 3 13984666949207499544
16067689 391 18262241157121010035
16067689 68 18059024873608653451
16992779 147 16772364401892905456
19301676 85 18189617327453214259
19303781 99 18260832635264039499
19841028 212 18334573585397646779
20028762 73 18411139126029200078
2026 5 18335137583730108283
20691028 202 10375864191304282034
208703 8 18408597084862211535
20982279 24 17532386425836279651
21130935 74 18341613754087685977
21424621 283 9943518618503188588
21585481 151 18342182107673993426
21585483 132 18187075161668675874
21792938 703 18041845154416186616
23522609 53 18047790115168178484
23569943 247 18340210799859799027
24204213 310 16556192778655920479
24983565 74 18117549627378565546
25242607 90 18409725158344039088
2748736 6 10015581679670045740
2835820 40 9582701774715576307
3383291 50 18334294283712156186
3504750 166 18338519643000807393
393628 194 10303516312811209530
397830 11 18201427078836272672
406291 66 18408885143913270642
42767 46 18259979392434201354
474113 269 18200867496553403815
4760202 70 18188220879540806124
50009960 94 18271240633950069575
50742298 180 18412265073033666030
5718773 13 18409165527962688421
5874358 3 17241588577883720802
5937810 71 11097858462818060631
6289498 60 12895064086293950594
636775 72 9438530507425147174
636775 8 18196379105642819390
6712543 237 16630528427393822903
96874 4 18410292527354616163
9689198 14 9007059092789109321
9962374 69 18187089430472685356

> <PUBCHEM_SHAPE_MULTIPOLES>
612.13
28.52
5.52
1.25
17.83
1.54
-0.1
45.38
-3.83
-2.41
1.32
0.17
-0.22
-1.05

> <PUBCHEM_SHAPE_SELFOVERLAP>
1328.361

> <PUBCHEM_SHAPE_VOLUME>
335.8

> <PUBCHEM_COORDINATE_TYPE>
2
5
10

$$$$
