71693937
  -OEChem-12032416273D

 48 50  0     1  0  0  0  0  0999 V2000
    5.8054   -2.4418   -0.1285 F   0  0  0  0  0  0  0  0  0  0  0  0
    4.2552   -3.2844   -1.3896 F   0  0  0  0  0  0  0  0  0  0  0  0
    4.3101   -3.7665    0.7299 F   0  0  0  0  0  0  0  0  0  0  0  0
   -0.5640    4.2198   -1.2190 O   0  0  0  0  0  0  0  0  0  0  0  0
    2.1495    4.0892   -0.8200 O   0  0  0  0  0  0  0  0  0  0  0  0
   -0.5989   -0.3920   -1.3433 O   0  0  0  0  0  0  0  0  0  0  0  0
   -6.5454   -1.9956    0.1105 O   0  0  0  0  0  0  0  0  0  0  0  0
   -1.1738    1.4231   -0.0187 N   0  0  0  0  0  0  0  0  0  0  0  0
    1.0462    1.7824    1.0194 C   0  0  2  0  0  0  0  0  0  0  0  0
    0.0797    2.1241   -0.1370 C   0  0  2  0  0  0  0  0  0  0  0  0
   -0.0991    3.6367   -0.0163 C   0  0  1  0  0  0  0  0  0  0  0  0
    1.8063    3.0961    1.3367 C   0  0  0  0  0  0  0  0  0  0  0  0
    1.3037    4.1245    0.3254 C   0  0  1  0  0  0  0  0  0  0  0  0
    1.9427    0.6014    0.7128 C   0  0  0  0  0  0  0  0  0  0  0  0
    1.9032   -0.5327    1.5240 C   0  0  0  0  0  0  0  0  0  0  0  0
    2.8071    0.6468   -0.3809 C   0  0  0  0  0  0  0  0  0  0  0  0
   -1.4110    0.2051   -0.6416 C   0  0  0  0  0  0  0  0  0  0  0  0
    2.7284   -1.6212    1.2416 C   0  0  0  0  0  0  0  0  0  0  0  0
    3.6324   -0.4415   -0.6633 C   0  0  0  0  0  0  0  0  0  0  0  0
    3.5930   -1.5756    0.1479 C   0  0  0  0  0  0  0  0  0  0  0  0
   -2.7638   -0.3757   -0.4427 C   0  0  0  0  0  0  0  0  0  0  0  0
    4.4729   -2.7407   -0.1556 C   0  0  0  0  0  0  0  0  0  0  0  0
   -3.3044   -1.2295   -1.4042 C   0  0  0  0  0  0  0  0  0  0  0  0
   -3.4939   -0.0664    0.7048 C   0  0  0  0  0  0  0  0  0  0  0  0
   -4.5751   -1.7738   -1.2184 C   0  0  0  0  0  0  0  0  0  0  0  0
   -4.7647   -0.6105    0.8908 C   0  0  0  0  0  0  0  0  0  0  0  0
   -5.3052   -1.4643   -0.0708 C   0  0  0  0  0  0  0  0  0  0  0  0
   -7.2365   -1.6371    1.3061 C   0  0  0  0  0  0  0  0  0  0  0  0
    0.4542    1.5378    1.9139 H   0  0  0  0  0  0  0  0  0  0  0  0
    0.4999    1.8857   -1.1218 H   0  0  0  0  0  0  0  0  0  0  0  0
   -0.8003    3.8864    0.7901 H   0  0  0  0  0  0  0  0  0  0  0  0
    1.5283    3.4201    2.3476 H   0  0  0  0  0  0  0  0  0  0  0  0
    2.8951    2.9800    1.3142 H   0  0  0  0  0  0  0  0  0  0  0  0
    1.3052    5.1471    0.7143 H   0  0  0  0  0  0  0  0  0  0  0  0
   -1.9006    1.8715    0.5280 H   0  0  0  0  0  0  0  0  0  0  0  0
   -0.5615    5.1843   -1.0958 H   0  0  0  0  0  0  0  0  0  0  0  0
    3.0363    4.3708   -0.5372 H   0  0  0  0  0  0  0  0  0  0  0  0
    1.2342   -0.5842    2.3788 H   0  0  0  0  0  0  0  0  0  0  0  0
    2.8583    1.5190   -1.0250 H   0  0  0  0  0  0  0  0  0  0  0  0
    2.6818   -2.4952    1.8852 H   0  0  0  0  0  0  0  0  0  0  0  0
    4.3029   -0.3970   -1.5174 H   0  0  0  0  0  0  0  0  0  0  0  0
   -2.7532   -1.4790   -2.3070 H   0  0  0  0  0  0  0  0  0  0  0  0
   -3.0976    0.5661    1.4935 H   0  0  0  0  0  0  0  0  0  0  0  0
   -4.9916   -2.4375   -1.9712 H   0  0  0  0  0  0  0  0  0  0  0  0
   -5.2742   -0.3347    1.8078 H   0  0  0  0  0  0  0  0  0  0  0  0
   -8.2051   -2.1472    1.2848 H   0  0  0  0  0  0  0  0  0  0  0  0
   -7.4423   -0.5620    1.3452 H   0  0  0  0  0  0  0  0  0  0  0  0
   -6.7082   -1.9914    2.1978 H   0  0  0  0  0  0  0  0  0  0  0  0
  1 22  1  0  0  0  0
  2 22  1  0  0  0  0
  3 22  1  0  0  0  0
  4 11  1  0  0  0  0
  4 36  1  0  0  0  0
  5 13  1  0  0  0  0
  5 37  1  0  0  0  0
  6 17  2  0  0  0  0
  7 27  1  0  0  0  0
  7 28  1  0  0  0  0
  8 10  1  0  0  0  0
  8 17  1  0  0  0  0
  8 35  1  0  0  0  0
  9 10  1  0  0  0  0
  9 12  1  0  0  0  0
  9 14  1  0  0  0  0
  9 29  1  0  0  0  0
 10 11  1  0  0  0  0
 10 30  1  0  0  0  0
 11 13  1  0  0  0  0
 11 31  1  0  0  0  0
 12 13  1  0  0  0  0
 12 32  1  0  0  0  0
 12 33  1  0  0  0  0
 13 34  1  0  0  0  0
 14 15  2  0  0  0  0
 14 16  1  0  0  0  0
 15 18  1  0  0  0  0
 15 38  1  0  0  0  0
 16 19  2  0  0  0  0
 16 39  1  0  0  0  0
 17 21  1  0  0  0  0
 18 20  2  0  0  0  0
 18 40  1  0  0  0  0
 19 20  1  0  0  0  0
 19 41  1  0  0  0  0
 20 22  1  0  0  0  0
 21 23  2  0  0  0  0
 21 24  1  0  0  0  0
 23 25  1  0  0  0  0
 23 42  1  0  0  0  0
 24 26  2  0  0  0  0
 24 43  1  0  0  0  0
 25 27  2  0  0  0  0
 25 44  1  0  0  0  0
 26 27  1  0  0  0  0
 26 45  1  0  0  0  0
 28 46  1  0  0  0  0
 28 47  1  0  0  0  0
 28 48  1  0  0  0  0
M  END
> <PUBCHEM_COMPOUND_CID>
71693937

> <PUBCHEM_CONFORMER_RMSD>
0.8

> <PUBCHEM_CONFORMER_DIVERSEORDER>
1
13
10
4
12
7
14
5
9
11
8
2
6
3

> <PUBCHEM_MMFF94_PARTIAL_CHARGES>
38
1 -0.34
10 0.3
11 0.28
13 0.28
14 -0.14
15 -0.15
16 -0.15
17 0.54
18 -0.15
19 -0.15
2 -0.34
20 -0.14
21 0.09
22 1.16
23 -0.15
24 -0.15
25 -0.15
26 -0.15
27 0.08
28 0.28
3 -0.34
35 0.37
36 0.4
37 0.4
38 0.15
39 0.15
4 -0.68
40 0.15
41 0.15
42 0.15
43 0.15
44 0.15
45 0.15
5 -0.68
6 -0.57
7 -0.36
8 -0.73
9 0.14

> <PUBCHEM_EFFECTIVE_ROTOR_COUNT>
7

> <PUBCHEM_PHARMACOPHORE_FEATURES>
10
1 4 acceptor
1 4 donor
1 5 acceptor
1 5 donor
1 6 acceptor
1 7 acceptor
1 8 donor
5 9 10 11 12 13 rings
6 14 15 16 18 19 20 rings
6 21 23 24 25 26 27 rings

> <PUBCHEM_HEAVY_ATOM_COUNT>
28

> <PUBCHEM_ATOM_DEF_STEREO_COUNT>
4

> <PUBCHEM_ATOM_UDEF_STEREO_COUNT>
0

> <PUBCHEM_BOND_DEF_STEREO_COUNT>
0

> <PUBCHEM_BOND_UDEF_STEREO_COUNT>
0

> <PUBCHEM_ISOTOPIC_ATOM_COUNT>
0

> <PUBCHEM_COMPONENT_COUNT>
1

> <PUBCHEM_CACTVS_TAUTO_COUNT>
2

> <PUBCHEM_CONFORMER_ID>
0445F67100000001

> <PUBCHEM_MMFF94_ENERGY>
83.2703

> <PUBCHEM_FEATURE_SELFOVERLAP>
50.758

> <PUBCHEM_SHAPE_FINGERPRINT>
10554248 39 18269262617411626127
10928967 22 18339350894907663151
114674 6 18187637067733696923
11991303 11 17609497121126359533
12107183 9 18271817761832959025
12553582 1 18339631291735994214
12788726 201 17901099716087053201
13009979 54 18060426789457079929
13533116 47 18338800151909757859
13631057 29 18266179436209686122
13673619 4 18041000635603584031
13692114 37 17331948933881489418
13785724 45 18342468006298194607
13911852 28 18411980222280699391
13955234 65 18197216068985649897
14251757 5 17905881479577433644
14251764 30 18408606929080709251
14863182 85 18122615322059956272
14866123 147 18052535466067072801
15042514 8 18053103921656922880
15250474 111 17842266258272849263
17349148 13 17560799987702806501
17492 89 18340484586506809019
17818456 19 17988933267034563001
1813 80 18342745095669989471
20505436 4 17484531384004991773
20775438 99 17976243948813887195
20775530 9 18341039731940320014
21049683 271 18410016572186711364
21716022 299 18262820530786212988
22033318 11 18055949587590254897
22849339 104 17620764886159077180
22950370 63 18411704253071987691
23466295 7 17981889644726853688
23559900 14 18339072804912937675
3380486 145 17342615004478455832
3421961 26 18341046410329485825
345986 75 17918278653495239193
34797466 226 16515970388632617647
3737641 26 18411978061896006844
4144715 1 18042125518288798017
4394409 98 15311558286156493758
4409770 3 17904479602226028877
44880168 125 17059773296086338814
4516262 110 17978787132716021813
46194498 28 17458624583371918605
465052 167 18342182189130906391
5309563 4 18411135792897526347
56633871 153 18060135401939008175
57527585 103 15184635177629242158
57527585 21 14709772748796982718
6695519 79 16555614242809616402
70251023 43 18407762529656143392
7970288 3 18411135801345315531
8272917 22 18120089748156198661
86090 222 17386288809135669451

> <PUBCHEM_SHAPE_MULTIPOLES>
525.95
12.83
5.28
1.35
19.91
4.09
-0.05
-16.14
-1.8
-7.83
0.66
0.36
-0.14
0.32

> <PUBCHEM_SHAPE_SELFOVERLAP>
1133.833

> <PUBCHEM_SHAPE_VOLUME>
291.5

> <PUBCHEM_COORDINATE_TYPE>
2
5
10

$$$$
