51138049
  -OEChem-12032416323D

 65 69  0     1  0  0  0  0  0999 V2000
   -2.4340    2.5694   -0.5298 O   0  0  0  0  0  0  0  0  0  0  0  0
   -1.2536   -0.2543   -0.1841 N   0  0  0  0  0  0  0  0  0  0  0  0
    3.5406    0.8333    0.9718 N   0  0  0  0  0  0  0  0  0  0  0  0
   -3.4357    1.3920    1.2108 N   0  0  0  0  0  0  0  0  0  0  0  0
    7.4247    0.3620   -2.2292 N   0  0  0  0  0  0  0  0  0  0  0  0
   -5.5034    1.4056   -1.0652 N   0  0  0  0  0  0  0  0  0  0  0  0
   -0.7035   -1.4744    0.4214 C   0  0  2  0  0  0  0  0  0  0  0  0
    0.8036   -1.4643    0.6964 C   0  0  0  0  0  0  0  0  0  0  0  0
    1.6226   -0.2990    0.7349 C   0  0  0  0  0  0  0  0  0  0  0  0
   -1.1537    0.9360    0.6482 C   0  0  1  0  0  0  0  0  0  0  0  0
   -1.1212   -2.6060   -0.5350 C   0  0  0  0  0  0  0  0  0  0  0  0
    1.3703    1.1066    0.5664 C   0  0  0  0  0  0  0  0  0  0  0  0
    0.0679    1.7763    0.2812 C   0  0  0  0  0  0  0  0  0  0  0  0
    2.9889   -0.4254    1.0117 C   0  0  0  0  0  0  0  0  0  0  0  0
   -2.5948   -2.9983   -0.3902 C   0  0  0  0  0  0  0  0  0  0  0  0
    2.5766    1.7616    0.7111 C   0  0  0  0  0  0  0  0  0  0  0  0
    1.4432   -2.6890    1.0164 C   0  0  0  0  0  0  0  0  0  0  0  0
   -2.3955    1.7229    0.3592 C   0  0  0  0  0  0  0  0  0  0  0  0
    3.6094   -1.6470    1.2785 C   0  0  0  0  0  0  0  0  0  0  0  0
    4.9358    1.1491    1.1925 C   0  0  0  0  0  0  0  0  0  0  0  0
    2.8068   -2.7804    1.2889 C   0  0  0  0  0  0  0  0  0  0  0  0
   -2.9024   -4.1621   -1.3355 C   0  0  0  0  0  0  0  0  0  0  0  0
   -3.5452   -1.8349   -0.6767 C   0  0  0  0  0  0  0  0  0  0  0  0
    5.8081    0.8728   -0.0068 C   0  0  0  0  0  0  0  0  0  0  0  0
   -4.7344    2.0231    1.1549 C   0  0  0  0  0  0  0  0  0  0  0  0
    6.8950    0.0126    0.1036 C   0  0  0  0  0  0  0  0  0  0  0  0
    5.5286    1.4778   -1.2272 C   0  0  0  0  0  0  0  0  0  0  0  0
   -5.6857    1.2732    0.2678 C   0  0  0  0  0  0  0  0  0  0  0  0
    7.6651   -0.2076   -1.0269 C   0  0  0  0  0  0  0  0  0  0  0  0
    6.3597    1.1919   -2.2983 C   0  0  0  0  0  0  0  0  0  0  0  0
   -6.6821    0.4998    0.8414 C   0  0  0  0  0  0  0  0  0  0  0  0
   -7.5471   -0.1817   -0.0078 C   0  0  0  0  0  0  0  0  0  0  0  0
   -6.3633    0.7286   -1.8591 C   0  0  0  0  0  0  0  0  0  0  0  0
   -7.3914   -0.0703   -1.3851 C   0  0  0  0  0  0  0  0  0  0  0  0
   -1.1901   -1.6419    1.3921 H   0  0  0  0  0  0  0  0  0  0  0  0
   -1.1307    0.6885    1.7180 H   0  0  0  0  0  0  0  0  0  0  0  0
   -0.8984   -2.3308   -1.5766 H   0  0  0  0  0  0  0  0  0  0  0  0
   -0.5421   -3.5186   -0.3674 H   0  0  0  0  0  0  0  0  0  0  0  0
    0.0532    2.0486   -0.7837 H   0  0  0  0  0  0  0  0  0  0  0  0
    0.0283    2.7244    0.8354 H   0  0  0  0  0  0  0  0  0  0  0  0
   -0.8524   -0.0932   -1.1073 H   0  0  0  0  0  0  0  0  0  0  0  0
   -2.7755   -3.3469    0.6346 H   0  0  0  0  0  0  0  0  0  0  0  0
    2.8139    2.8158    0.6506 H   0  0  0  0  0  0  0  0  0  0  0  0
    0.8691   -3.6094    1.0926 H   0  0  0  0  0  0  0  0  0  0  0  0
    4.6686   -1.7227    1.4973 H   0  0  0  0  0  0  0  0  0  0  0  0
    5.0129    2.2110    1.4573 H   0  0  0  0  0  0  0  0  0  0  0  0
    5.2665    0.5863    2.0736 H   0  0  0  0  0  0  0  0  0  0  0  0
    3.2447   -3.7470    1.5235 H   0  0  0  0  0  0  0  0  0  0  0  0
   -2.7561   -3.8741   -2.3823 H   0  0  0  0  0  0  0  0  0  0  0  0
   -3.9392   -4.4954   -1.2185 H   0  0  0  0  0  0  0  0  0  0  0  0
   -2.2547   -5.0198   -1.1250 H   0  0  0  0  0  0  0  0  0  0  0  0
   -3.2902   -1.3093   -1.6025 H   0  0  0  0  0  0  0  0  0  0  0  0
   -3.5769   -1.1342    0.1587 H   0  0  0  0  0  0  0  0  0  0  0  0
   -4.5718   -2.2034   -0.7891 H   0  0  0  0  0  0  0  0  0  0  0  0
   -3.3026    0.6561    1.8985 H   0  0  0  0  0  0  0  0  0  0  0  0
   -4.6245    3.0479    0.7818 H   0  0  0  0  0  0  0  0  0  0  0  0
   -5.1116    2.0878    2.1812 H   0  0  0  0  0  0  0  0  0  0  0  0
    7.1434   -0.4766    1.0391 H   0  0  0  0  0  0  0  0  0  0  0  0
    4.6974    2.1623   -1.3541 H   0  0  0  0  0  0  0  0  0  0  0  0
    8.5239   -0.8699   -0.9935 H   0  0  0  0  0  0  0  0  0  0  0  0
    6.1861    1.6399   -3.2711 H   0  0  0  0  0  0  0  0  0  0  0  0
   -6.7957    0.4163    1.9168 H   0  0  0  0  0  0  0  0  0  0  0  0
   -8.3403   -0.7990    0.4028 H   0  0  0  0  0  0  0  0  0  0  0  0
   -6.1987    0.8479   -2.9248 H   0  0  0  0  0  0  0  0  0  0  0  0
   -8.0534   -0.5929   -2.0660 H   0  0  0  0  0  0  0  0  0  0  0  0
  1 18  2  0  0  0  0
  2  7  1  0  0  0  0
  2 10  1  0  0  0  0
  2 41  1  0  0  0  0
  3 14  1  0  0  0  0
  3 16  1  0  0  0  0
  3 20  1  0  0  0  0
  4 18  1  0  0  0  0
  4 25  1  0  0  0  0
  4 55  1  0  0  0  0
  5 29  2  0  0  0  0
  5 30  1  0  0  0  0
  6 28  1  0  0  0  0
  6 33  2  0  0  0  0
  7  8  1  0  0  0  0
  7 11  1  0  0  0  0
  7 35  1  0  0  0  0
  8  9  2  0  0  0  0
  8 17  1  0  0  0  0
  9 12  1  0  0  0  0
  9 14  1  0  0  0  0
 10 13  1  0  0  0  0
 10 18  1  0  0  0  0
 10 36  1  0  0  0  0
 11 15  1  0  0  0  0
 11 37  1  0  0  0  0
 11 38  1  0  0  0  0
 12 13  1  0  0  0  0
 12 16  2  0  0  0  0
 13 39  1  0  0  0  0
 13 40  1  0  0  0  0
 14 19  2  0  0  0  0
 15 22  1  0  0  0  0
 15 23  1  0  0  0  0
 15 42  1  0  0  0  0
 16 43  1  0  0  0  0
 17 21  2  0  0  0  0
 17 44  1  0  0  0  0
 19 21  1  0  0  0  0
 19 45  1  0  0  0  0
 20 24  1  0  0  0  0
 20 46  1  0  0  0  0
 20 47  1  0  0  0  0
 21 48  1  0  0  0  0
 22 49  1  0  0  0  0
 22 50  1  0  0  0  0
 22 51  1  0  0  0  0
 23 52  1  0  0  0  0
 23 53  1  0  0  0  0
 23 54  1  0  0  0  0
 24 26  2  0  0  0  0
 24 27  1  0  0  0  0
 25 28  1  0  0  0  0
 25 56  1  0  0  0  0
 25 57  1  0  0  0  0
 26 29  1  0  0  0  0
 26 58  1  0  0  0  0
 27 30  2  0  0  0  0
 27 59  1  0  0  0  0
 28 31  2  0  0  0  0
 29 60  1  0  0  0  0
 30 61  1  0  0  0  0
 31 32  1  0  0  0  0
 31 62  1  0  0  0  0
 32 34  2  0  0  0  0
 32 63  1  0  0  0  0
 33 34  1  0  0  0  0
 33 64  1  0  0  0  0
 34 65  1  0  0  0  0
M  END
> <PUBCHEM_COMPOUND_CID>
51138049

> <PUBCHEM_CONFORMER_RMSD>
1.2

> <PUBCHEM_CONFORMER_DIVERSEORDER>
1
65
110
20
26
86
5
46
10
112
70
39
119
43
18
54
24
73
114
48
31
83
118
4
115
51
15
44
102
12
111
47
67
8
75
97
53
58
116
87
45
82
66
60
33
34
68
76
27
57
25
40
84
78
74
106
7
69
19
103
79
42
14
30
61
37
56
41
77
89
49
3
85
105
96
23
107
11
91
6
38
92
98
95
108
36
72
81
55
35
2
21
64
62
28
52
94
101
99
90
93
80
100
29
22
32
71
104
117
113
88
50
13
9
59
63
16
17
109

> <PUBCHEM_MMFF94_PARTIAL_CHARGES>
43
1 -0.57
10 0.33
12 -0.18
13 0.18
14 -0.15
16 -0.3
17 -0.15
18 0.57
19 -0.15
2 -0.9
20 0.4
21 -0.15
24 -0.14
25 0.44
26 -0.15
27 -0.15
28 0.17
29 0.16
3 0.05
30 0.16
31 -0.15
32 -0.15
33 0.16
34 -0.15
4 -0.73
41 0.36
43 0.15
44 0.15
45 0.15
48 0.15
5 -0.62
55 0.37
58 0.15
59 0.15
6 -0.62
60 0.15
61 0.15
62 0.15
63 0.15
64 0.15
65 0.15
7 0.41
8 -0.14

> <PUBCHEM_EFFECTIVE_ROTOR_COUNT>
8.8

> <PUBCHEM_PHARMACOPHORE_FEATURES>
13
1 1 acceptor
1 2 cation
1 2 donor
1 3 cation
1 4 donor
1 5 acceptor
1 6 acceptor
3 15 22 23 hydrophobe
5 3 9 12 14 16 rings
6 5 24 26 27 29 30 rings
6 6 28 31 32 33 34 rings
6 8 9 14 17 19 21 rings
7 2 7 8 9 10 12 13 rings

> <PUBCHEM_HEAVY_ATOM_COUNT>
34

> <PUBCHEM_ATOM_DEF_STEREO_COUNT>
2

> <PUBCHEM_ATOM_UDEF_STEREO_COUNT>
0

> <PUBCHEM_BOND_DEF_STEREO_COUNT>
0

> <PUBCHEM_BOND_UDEF_STEREO_COUNT>
0

> <PUBCHEM_ISOTOPIC_ATOM_COUNT>
0

> <PUBCHEM_COMPONENT_COUNT>
1

> <PUBCHEM_CACTVS_TAUTO_COUNT>
2

> <PUBCHEM_CONFORMER_ID>
030C4E0100000001

> <PUBCHEM_MMFF94_ENERGY>
82.7891

> <PUBCHEM_FEATURE_SELFOVERLAP>
66.103

> <PUBCHEM_SHAPE_FINGERPRINT>
10119406 146 18060145331855508167
11007060 377 18343585144429627385
11135609 12 10303810973511318810
11136131 41 18117264874829773747
11991303 11 18114464560447436451
12788726 201 17846774079958086033
13617811 41 18260270737625656956
14294032 229 18334294227882836108
1454969 45 18259706687801521557
14840074 17 18260828185746499221
14931854 50 18201707454364145461
15131766 46 16155133792416518332
15183329 4 18131915953073489462
15328829 1 17968103057172746708
15352257 5 16415761920499327837
15629462 23 16199885989534617387
1577012 14 18270960146873722497
15849732 13 17822013120338223189
19319366 153 18114460068011950090
20028762 73 17987221249989010751
21026386 80 15864067647054470218
21344244 181 17561086899865644478
21792938 79 15575838520416774631
21814621 53 14333117577670995715
23559900 14 17987790955203192080
23569943 247 16913995582294562270
23576562 1 18116438222358157605
24771293 8 10665525058138494152
25147074 1 18261944194401967722
27425 322 16588601906697664746
3103668 31 18046354299026723187
4058900 60 18113334215291972274
4173938 77 17823141288025332613
4258327 124 17894922857335782829
45377200 153 17131542960164780743
504579 68 18410572881376654236
563151 40 18408892849195590674
59755656 215 18202285796989478846

> <PUBCHEM_SHAPE_MULTIPOLES>
668.93
20.78
3.39
1.65
0.2
3.34
0.74
-7.96
9.89
-2.4
0.16
1.33
-0.09
-2.16

> <PUBCHEM_SHAPE_SELFOVERLAP>
1454.423

> <PUBCHEM_SHAPE_VOLUME>
362.2

> <PUBCHEM_COORDINATE_TYPE>
2
5
10

$$$$
