26742991
  -OEChem-12032416193D

 71 74  0     1  0  0  0  0  0999 V2000
   -0.9073   -3.2390   -1.3013 O   0  0  0  0  0  0  0  0  0  0  0  0
    5.5435    1.2289   -1.7699 O   0  0  0  0  0  0  0  0  0  0  0  0
   -2.4506   -1.8912   -0.2067 N   0  0  0  0  0  0  0  0  0  0  0  0
    3.0662   -2.5998    2.1641 N   0  0  0  0  0  0  0  0  0  0  0  0
    4.3658    0.5041   -1.9062 N   0  0  0  0  0  0  0  0  0  0  0  0
    1.3078   -2.2812   -0.1839 C   0  0  1  0  0  0  0  0  0  0  0  0
    2.5346   -1.3735    0.0714 C   0  0  2  0  0  0  0  0  0  0  0  0
    1.5200   -3.6251    0.5332 C   0  0  0  0  0  0  0  0  0  0  0  0
   -0.0298   -1.6513    0.2226 C   0  0  0  0  0  0  0  0  0  0  0  0
    2.8682   -1.2774    1.5697 C   0  0  0  0  0  0  0  0  0  0  0  0
   -4.8947   -0.3747   -0.5829 C   0  0  0  0  0  0  0  0  0  0  0  0
    1.8873   -3.4487    2.0060 C   0  0  0  0  0  0  0  0  0  0  0  0
    2.3842    0.0219   -0.5360 C   0  0  0  0  0  0  0  0  0  0  0  0
   -3.6500    0.2448    0.0706 C   0  0  0  0  0  0  0  0  0  0  0  0
   -4.4849   -1.5031   -1.5413 C   0  0  0  0  0  0  0  0  0  0  0  0
   -2.7853   -0.8217    0.7408 C   0  0  0  0  0  0  0  0  0  0  0  0
   -3.6051   -2.5334   -0.8373 C   0  0  0  0  0  0  0  0  0  0  0  0
   -1.1623   -2.3367   -0.4995 C   0  0  0  0  0  0  0  0  0  0  0  0
   -5.7112    0.6889   -1.3130 C   0  0  0  0  0  0  0  0  0  0  0  0
    3.7202    0.6728   -0.7487 C   0  0  0  0  0  0  0  0  0  0  0  0
   -6.5426    1.5020   -0.3590 C   0  0  0  0  0  0  0  0  0  0  0  0
    4.4350    1.4863    0.1474 C   0  0  0  0  0  0  0  0  0  0  0  0
    5.5732    1.8092   -0.5430 C   0  0  0  0  0  0  0  0  0  0  0  0
   -7.8382    1.0943   -0.0415 C   0  0  0  0  0  0  0  0  0  0  0  0
   -6.0182    2.6633    0.2082 C   0  0  0  0  0  0  0  0  0  0  0  0
    6.7568    2.6189   -0.2296 C   0  0  0  0  0  0  0  0  0  0  0  0
    7.9947    1.7672    0.1311 C   0  0  0  0  0  0  0  0  0  0  0  0
   -8.6095    1.8481    0.8433 C   0  0  0  0  0  0  0  0  0  0  0  0
   -6.7893    3.4171    1.0930 C   0  0  0  0  0  0  0  0  0  0  0  0
   -8.0850    3.0095    1.4105 C   0  0  0  0  0  0  0  0  0  0  0  0
    9.2080    2.6207    0.4995 C   0  0  0  0  0  0  0  0  0  0  0  0
   10.3986    1.7588    0.8885 C   0  0  0  0  0  0  0  0  0  0  0  0
    1.3007   -2.4759   -1.2654 H   0  0  0  0  0  0  0  0  0  0  0  0
    3.3879   -1.8696   -0.4174 H   0  0  0  0  0  0  0  0  0  0  0  0
    2.3323   -4.1668    0.0296 H   0  0  0  0  0  0  0  0  0  0  0  0
    0.6357   -4.2669    0.4569 H   0  0  0  0  0  0  0  0  0  0  0  0
   -0.0688   -0.5999   -0.0766 H   0  0  0  0  0  0  0  0  0  0  0  0
   -0.1899   -1.7094    1.3025 H   0  0  0  0  0  0  0  0  0  0  0  0
    3.7958   -0.7174    1.7199 H   0  0  0  0  0  0  0  0  0  0  0  0
    2.0806   -0.7392    2.1115 H   0  0  0  0  0  0  0  0  0  0  0  0
   -5.5081   -0.8276    0.2092 H   0  0  0  0  0  0  0  0  0  0  0  0
    1.0467   -3.0437    2.5799 H   0  0  0  0  0  0  0  0  0  0  0  0
    2.1093   -4.4331    2.4332 H   0  0  0  0  0  0  0  0  0  0  0  0
    1.7707    0.6701    0.1018 H   0  0  0  0  0  0  0  0  0  0  0  0
    1.8745   -0.0418   -1.5064 H   0  0  0  0  0  0  0  0  0  0  0  0
   -3.9293    0.9802    0.8309 H   0  0  0  0  0  0  0  0  0  0  0  0
   -3.0520    0.7671   -0.6873 H   0  0  0  0  0  0  0  0  0  0  0  0
   -3.9360   -1.0806   -2.3929 H   0  0  0  0  0  0  0  0  0  0  0  0
   -5.3751   -2.0001   -1.9441 H   0  0  0  0  0  0  0  0  0  0  0  0
   -1.8968   -0.3483    1.1612 H   0  0  0  0  0  0  0  0  0  0  0  0
   -3.3282   -1.2856    1.5730 H   0  0  0  0  0  0  0  0  0  0  0  0
   -4.1683   -3.0438   -0.0470 H   0  0  0  0  0  0  0  0  0  0  0  0
   -3.2843   -3.2958   -1.5541 H   0  0  0  0  0  0  0  0  0  0  0  0
    3.2761   -2.4957    3.1564 H   0  0  0  0  0  0  0  0  0  0  0  0
   -6.3873    0.2153   -2.0375 H   0  0  0  0  0  0  0  0  0  0  0  0
   -5.0656    1.3472   -1.9088 H   0  0  0  0  0  0  0  0  0  0  0  0
    4.1645    1.7962    1.1460 H   0  0  0  0  0  0  0  0  0  0  0  0
   -8.2575    0.1901   -0.4748 H   0  0  0  0  0  0  0  0  0  0  0  0
   -5.0143    2.9993   -0.0372 H   0  0  0  0  0  0  0  0  0  0  0  0
    6.9979    3.2616   -1.0853 H   0  0  0  0  0  0  0  0  0  0  0  0
    6.5281    3.2899    0.6076 H   0  0  0  0  0  0  0  0  0  0  0  0
    8.2475    1.1152   -0.7149 H   0  0  0  0  0  0  0  0  0  0  0  0
    7.7445    1.1063    0.9712 H   0  0  0  0  0  0  0  0  0  0  0  0
   -9.6181    1.5305    1.0910 H   0  0  0  0  0  0  0  0  0  0  0  0
   -6.3819    4.3226    1.5329 H   0  0  0  0  0  0  0  0  0  0  0  0
   -8.6856    3.5966    2.0991 H   0  0  0  0  0  0  0  0  0  0  0  0
    9.4835    3.2584   -0.3483 H   0  0  0  0  0  0  0  0  0  0  0  0
    8.9557    3.2831    1.3356 H   0  0  0  0  0  0  0  0  0  0  0  0
   10.1638    1.1335    1.7558 H   0  0  0  0  0  0  0  0  0  0  0  0
   11.2549    2.3897    1.1465 H   0  0  0  0  0  0  0  0  0  0  0  0
   10.6952    1.1043    0.0627 H   0  0  0  0  0  0  0  0  0  0  0  0
  1 18  2  0  0  0  0
  2  5  1  0  0  0  0
  2 23  1  0  0  0  0
  3 16  1  0  0  0  0
  3 17  1  0  0  0  0
  3 18  1  0  0  0  0
  4 10  1  0  0  0  0
  4 12  1  0  0  0  0
  4 54  1  0  0  0  0
  5 20  2  0  0  0  0
  6  7  1  0  0  0  0
  6  8  1  0  0  0  0
  6  9  1  0  0  0  0
  6 33  1  0  0  0  0
  7 10  1  0  0  0  0
  7 13  1  0  0  0  0
  7 34  1  0  0  0  0
  8 12  1  0  0  0  0
  8 35  1  0  0  0  0
  8 36  1  0  0  0  0
  9 18  1  0  0  0  0
  9 37  1  0  0  0  0
  9 38  1  0  0  0  0
 10 39  1  0  0  0  0
 10 40  1  0  0  0  0
 11 14  1  0  0  0  0
 11 15  1  0  0  0  0
 11 19  1  0  0  0  0
 11 41  1  0  0  0  0
 12 42  1  0  0  0  0
 12 43  1  0  0  0  0
 13 20  1  0  0  0  0
 13 44  1  0  0  0  0
 13 45  1  0  0  0  0
 14 16  1  0  0  0  0
 14 46  1  0  0  0  0
 14 47  1  0  0  0  0
 15 17  1  0  0  0  0
 15 48  1  0  0  0  0
 15 49  1  0  0  0  0
 16 50  1  0  0  0  0
 16 51  1  0  0  0  0
 17 52  1  0  0  0  0
 17 53  1  0  0  0  0
 19 21  1  0  0  0  0
 19 55  1  0  0  0  0
 19 56  1  0  0  0  0
 20 22  1  0  0  0  0
 21 24  2  0  0  0  0
 21 25  1  0  0  0  0
 22 23  2  0  0  0  0
 22 57  1  0  0  0  0
 23 26  1  0  0  0  0
 24 28  1  0  0  0  0
 24 58  1  0  0  0  0
 25 29  2  0  0  0  0
 25 59  1  0  0  0  0
 26 27  1  0  0  0  0
 26 60  1  0  0  0  0
 26 61  1  0  0  0  0
 27 31  1  0  0  0  0
 27 62  1  0  0  0  0
 27 63  1  0  0  0  0
 28 30  2  0  0  0  0
 28 64  1  0  0  0  0
 29 30  1  0  0  0  0
 29 65  1  0  0  0  0
 30 66  1  0  0  0  0
 31 32  1  0  0  0  0
 31 67  1  0  0  0  0
 31 68  1  0  0  0  0
 32 69  1  0  0  0  0
 32 70  1  0  0  0  0
 32 71  1  0  0  0  0
M  END
> <PUBCHEM_COMPOUND_CID>
26742991

> <PUBCHEM_CONFORMER_RMSD>
1.6

> <PUBCHEM_CONFORMER_DIVERSEORDER>
1
29
68
14
4
64
52
73
79
65
63
53
32
60
42
72
77
59
69
51
70
35
22
10
36
28
16
61
25
31
58
49
40
39
26
75
62
82
23
47
45
17
83
78
21
81
56
24
55
37
6
7
43
74
46
9
2
71
13
57
30
38
48
11
34
33
18
19
84
86
41
54
8
44
80
5
76
67
20
85
12
27
66
15
3
50

> <PUBCHEM_MMFF94_PARTIAL_CHARGES>
30
1 -0.57
10 0.27
12 0.27
13 0.18
16 0.3
17 0.3
18 0.57
19 0.14
2 -0.02
20 0.11
21 -0.14
22 -0.15
23 -0.04
24 -0.15
25 -0.15
26 0.18
28 -0.15
29 -0.15
3 -0.66
30 -0.15
4 -0.9
5 -0.41
54 0.36
57 0.15
58 0.15
59 0.15
64 0.15
65 0.15
66 0.15
9 0.06

> <PUBCHEM_EFFECTIVE_ROTOR_COUNT>
12.4

> <PUBCHEM_PHARMACOPHORE_FEATURES>
9
1 1 acceptor
1 32 hydrophobe
1 4 cation
1 4 donor
1 5 acceptor
5 2 5 20 22 23 rings
6 21 24 25 28 29 30 rings
6 3 11 14 15 16 17 rings
6 4 6 7 8 10 12 rings

> <PUBCHEM_HEAVY_ATOM_COUNT>
32

> <PUBCHEM_ATOM_DEF_STEREO_COUNT>
2

> <PUBCHEM_ATOM_UDEF_STEREO_COUNT>
0

> <PUBCHEM_BOND_DEF_STEREO_COUNT>
0

> <PUBCHEM_BOND_UDEF_STEREO_COUNT>
0

> <PUBCHEM_ISOTOPIC_ATOM_COUNT>
0

> <PUBCHEM_COMPONENT_COUNT>
1

> <PUBCHEM_CACTVS_TAUTO_COUNT>
1

> <PUBCHEM_CONFORMER_ID>
019810CF00000001

> <PUBCHEM_MMFF94_ENERGY>
48.4889

> <PUBCHEM_FEATURE_SELFOVERLAP>
45.671

> <PUBCHEM_SHAPE_FINGERPRINT>
10533779 1 18410567362951223973
10917259 128 18272641343170979872
11135926 11 18114453522296570508
11181472 205 18334579088617726028
11273773 42 18342452656564977573
11475781 23 18201448012706826812
11621639 336 18267585711112919168
11973864 47 18272367595119451001
1200032 147 18333454226710412267
13008946 335 17821449071363960458
1361 87 13254505513949263805
13726171 33 18342464742471261491
14251764 75 18410015408118425839
14394314 77 18335980947581680884
14671636 106 8286204951068617436
15289351 153 18338786914867887888
15439362 3 18412546501187645086
16126227 98 18413113857987741829
17899979 129 18342182128800885078
19302320 297 17894918464096825804
19438510 23 18333453149005936787
20105231 36 12035717710163851440
21298829 104 18411421713355156349
21774942 28 18343301487931302820
249057 25 18196347292350799791
25269216 80 16988268860293457637
397830 11 17531261526487387531
406291 66 9151174238184687877
44426699 153 14708587523445728624
44880568 143 18128262379631245316
4516262 110 18260539022561979879
474113 269 7997683157359885001
4756326 101 17346307259752280384
5385378 56 18113615668983152310
563151 74 17603872178451837323
57303763 176 18272092644282945432
57724786 102 18335980849119128039
58260988 521 13623516971266265376
5874358 3 12468935268600372185
6058803 2 18265590170660294351
9896288 288 18117564143692772794

> <PUBCHEM_SHAPE_MULTIPOLES>
631.86
29.32
4.81
1.54
17.26
1.53
-0.2
-43.08
-4.66
-0.43
-1.57
0.31
0.61
-3.91

> <PUBCHEM_SHAPE_SELFOVERLAP>
1311.199

> <PUBCHEM_SHAPE_VOLUME>
356.8

> <PUBCHEM_COORDINATE_TYPE>
2
5
10

$$$$
