11911962
  -OEChem-12032416233D

 59 64  0     1  0  0  0  0  0999 V2000
   -2.9179   -1.1464   -0.2855 S   0  0  0  0  0  0  0  0  0  0  0  0
    3.5300   -0.8829   -2.2006 O   0  0  0  0  0  0  0  0  0  0  0  0
   -1.0477    1.8068   -1.5740 O   0  0  0  0  0  0  0  0  0  0  0  0
    3.6826    0.5899   -0.4099 N   0  0  0  0  0  0  0  0  0  0  0  0
    0.7970    1.9319   -0.1507 N   0  0  0  0  0  0  0  0  0  0  0  0
    3.0292    2.9552   -0.8752 C   0  0  1  0  0  0  0  0  0  0  0  0
    2.7825    2.0455    1.3958 C   0  0  2  0  0  0  0  0  0  0  0  0
    3.2006    3.2821    0.6032 C   0  0  0  0  0  0  0  0  0  0  0  0
    3.9078    1.7546   -1.2681 C   0  0  0  0  0  0  0  0  0  0  0  0
    3.7047    0.8645    1.0347 C   0  0  0  0  0  0  0  0  0  0  0  0
    1.5440    2.6992   -1.1568 C   0  0  0  0  0  0  0  0  0  0  0  0
    1.3389    1.6753    1.1115 C   0  0  0  0  0  0  0  0  0  0  0  0
    3.4043   -1.8302   -0.0403 C   0  0  0  0  0  0  0  0  0  0  0  0
    3.5462   -0.6738   -0.9848 C   0  0  0  0  0  0  0  0  0  0  0  0
    1.9291   -2.0410    0.3081 C   0  0  0  0  0  0  0  0  0  0  0  0
    4.0187   -3.0877   -0.6592 C   0  0  0  0  0  0  0  0  0  0  0  0
    0.5952    1.0777    2.0566 C   0  0  0  0  0  0  0  0  0  0  0  0
    1.7285   -3.2675    1.1942 C   0  0  0  0  0  0  0  0  0  0  0  0
    3.8131   -4.3118    0.2290 C   0  0  0  0  0  0  0  0  0  0  0  0
   -0.5231    1.5682   -0.4849 C   0  0  0  0  0  0  0  0  0  0  0  0
    2.3406   -4.5185    0.5710 C   0  0  0  0  0  0  0  0  0  0  0  0
   -1.3144    0.8666    0.5841 C   0  0  0  0  0  0  0  0  0  0  0  0
   -0.7525    0.6643    1.7845 C   0  0  0  0  0  0  0  0  0  0  0  0
   -2.6491    0.4246    0.3297 C   0  0  0  0  0  0  0  0  0  0  0  0
   -3.8342    1.1065    0.5133 C   0  0  0  0  0  0  0  0  0  0  0  0
   -4.9901    0.3385    0.1467 C   0  0  0  0  0  0  0  0  0  0  0  0
   -4.6286   -0.9314   -0.3136 C   0  0  0  0  0  0  0  0  0  0  0  0
   -6.3661    0.6701    0.1846 C   0  0  0  0  0  0  0  0  0  0  0  0
   -5.5960   -1.8664   -0.7315 C   0  0  0  0  0  0  0  0  0  0  0  0
   -7.3282   -0.2549   -0.2294 C   0  0  0  0  0  0  0  0  0  0  0  0
   -6.9449   -1.5093   -0.6823 C   0  0  0  0  0  0  0  0  0  0  0  0
    3.3505    3.8119   -1.4805 H   0  0  0  0  0  0  0  0  0  0  0  0
    2.9049    2.2671    2.4641 H   0  0  0  0  0  0  0  0  0  0  0  0
    2.5881    4.1489    0.8815 H   0  0  0  0  0  0  0  0  0  0  0  0
    4.2437    3.5426    0.8198 H   0  0  0  0  0  0  0  0  0  0  0  0
    3.7475    1.4974   -2.3205 H   0  0  0  0  0  0  0  0  0  0  0  0
    4.9669    2.0207   -1.1626 H   0  0  0  0  0  0  0  0  0  0  0  0
    4.7433    1.1033    1.2949 H   0  0  0  0  0  0  0  0  0  0  0  0
    3.4157    0.0061    1.6402 H   0  0  0  0  0  0  0  0  0  0  0  0
    1.0293    3.6670   -1.2316 H   0  0  0  0  0  0  0  0  0  0  0  0
    1.4160    2.2141   -2.1327 H   0  0  0  0  0  0  0  0  0  0  0  0
    3.9866   -1.6608    0.8696 H   0  0  0  0  0  0  0  0  0  0  0  0
    1.3409   -2.1586   -0.6117 H   0  0  0  0  0  0  0  0  0  0  0  0
    1.5230   -1.1681    0.8175 H   0  0  0  0  0  0  0  0  0  0  0  0
    5.0911   -2.9373   -0.8345 H   0  0  0  0  0  0  0  0  0  0  0  0
    3.5706   -3.2951   -1.6399 H   0  0  0  0  0  0  0  0  0  0  0  0
    0.9962    0.8578    3.0405 H   0  0  0  0  0  0  0  0  0  0  0  0
    0.6578   -3.4268    1.3653 H   0  0  0  0  0  0  0  0  0  0  0  0
    2.1853   -3.0866    2.1751 H   0  0  0  0  0  0  0  0  0  0  0  0
    4.3895   -4.1921    1.1546 H   0  0  0  0  0  0  0  0  0  0  0  0
    4.2027   -5.2032   -0.2757 H   0  0  0  0  0  0  0  0  0  0  0  0
    2.2372   -5.3629    1.2615 H   0  0  0  0  0  0  0  0  0  0  0  0
    1.7877   -4.7801   -0.3396 H   0  0  0  0  0  0  0  0  0  0  0  0
   -1.2841    0.1655    2.5897 H   0  0  0  0  0  0  0  0  0  0  0  0
   -3.8810    2.1196    0.8956 H   0  0  0  0  0  0  0  0  0  0  0  0
   -6.6818    1.6490    0.5370 H   0  0  0  0  0  0  0  0  0  0  0  0
   -5.3052   -2.8506   -1.0876 H   0  0  0  0  0  0  0  0  0  0  0  0
   -8.3809    0.0115   -0.1956 H   0  0  0  0  0  0  0  0  0  0  0  0
   -7.7002   -2.2221   -1.0021 H   0  0  0  0  0  0  0  0  0  0  0  0
  1 24  1  0  0  0  0
  1 27  1  0  0  0  0
  2 14  2  0  0  0  0
  3 20  2  0  0  0  0
  4  9  1  0  0  0  0
  4 10  1  0  0  0  0
  4 14  1  0  0  0  0
  5 11  1  0  0  0  0
  5 12  1  0  0  0  0
  5 20  1  0  0  0  0
  6  8  1  0  0  0  0
  6  9  1  0  0  0  0
  6 11  1  0  0  0  0
  6 32  1  0  0  0  0
  7  8  1  0  0  0  0
  7 10  1  0  0  0  0
  7 12  1  0  0  0  0
  7 33  1  0  0  0  0
  8 34  1  0  0  0  0
  8 35  1  0  0  0  0
  9 36  1  0  0  0  0
  9 37  1  0  0  0  0
 10 38  1  0  0  0  0
 10 39  1  0  0  0  0
 11 40  1  0  0  0  0
 11 41  1  0  0  0  0
 12 17  2  0  0  0  0
 13 14  1  0  0  0  0
 13 15  1  0  0  0  0
 13 16  1  0  0  0  0
 13 42  1  0  0  0  0
 15 18  1  0  0  0  0
 15 43  1  0  0  0  0
 15 44  1  0  0  0  0
 16 19  1  0  0  0  0
 16 45  1  0  0  0  0
 16 46  1  0  0  0  0
 17 23  1  0  0  0  0
 17 47  1  0  0  0  0
 18 21  1  0  0  0  0
 18 48  1  0  0  0  0
 18 49  1  0  0  0  0
 19 21  1  0  0  0  0
 19 50  1  0  0  0  0
 19 51  1  0  0  0  0
 20 22  1  0  0  0  0
 21 52  1  0  0  0  0
 21 53  1  0  0  0  0
 22 23  2  0  0  0  0
 22 24  1  0  0  0  0
 23 54  1  0  0  0  0
 24 25  2  0  0  0  0
 25 26  1  0  0  0  0
 25 55  1  0  0  0  0
 26 27  1  0  0  0  0
 26 28  2  0  0  0  0
 27 29  2  0  0  0  0
 28 30  1  0  0  0  0
 28 56  1  0  0  0  0
 29 31  1  0  0  0  0
 29 57  1  0  0  0  0
 30 31  2  0  0  0  0
 30 58  1  0  0  0  0
 31 59  1  0  0  0  0
M  END
> <PUBCHEM_COMPOUND_CID>
11911962

> <PUBCHEM_CONFORMER_RMSD>
0.8

> <PUBCHEM_CONFORMER_DIVERSEORDER>
1
19
10
17
12
20
5
11
6
8
15
16
7
9
22
2
21
3
13
18
4
14

> <PUBCHEM_MMFF94_PARTIAL_CHARGES>
30
1 -0.08
10 0.3
11 0.3
12 -0.03
13 0.06
14 0.57
17 -0.15
2 -0.57
20 0.62
22 0.06
23 -0.15
24 -0.01
25 -0.15
27 0.04
28 -0.15
29 -0.15
3 -0.57
30 -0.15
31 -0.15
4 -0.66
47 0.15
5 -0.47
54 0.15
55 0.15
56 0.15
57 0.15
58 0.15
59 0.15
7 0.14
9 0.3

> <PUBCHEM_EFFECTIVE_ROTOR_COUNT>
5.2

> <PUBCHEM_PHARMACOPHORE_FEATURES>
8
1 2 acceptor
1 3 acceptor
5 1 24 25 26 27 rings
6 13 15 16 18 19 21 rings
6 26 27 28 29 30 31 rings
6 4 6 7 8 9 10 rings
6 5 12 17 20 22 23 rings
6 5 6 7 8 11 12 rings

> <PUBCHEM_HEAVY_ATOM_COUNT>
31

> <PUBCHEM_ATOM_DEF_STEREO_COUNT>
2

> <PUBCHEM_ATOM_UDEF_STEREO_COUNT>
0

> <PUBCHEM_BOND_DEF_STEREO_COUNT>
0

> <PUBCHEM_BOND_UDEF_STEREO_COUNT>
0

> <PUBCHEM_ISOTOPIC_ATOM_COUNT>
0

> <PUBCHEM_COMPONENT_COUNT>
1

> <PUBCHEM_CACTVS_TAUTO_COUNT>
1

> <PUBCHEM_CONFORMER_ID>
00B5C31A00000001

> <PUBCHEM_MMFF94_ENERGY>
73.9581

> <PUBCHEM_FEATURE_SELFOVERLAP>
42.228

> <PUBCHEM_SHAPE_FINGERPRINT>
10462674 125 10083646015576326853
10675989 125 18270121334759360976
11135609 149 18190158131995035911
11796584 16 17846787338416516517
11963148 33 17982439697511742447
12107183 9 17982459196404114929
12539745 222 13900536653884197916
13150687 139 17896903130436029812
13533116 47 18342739628746437665
1361 2 18334860566559412341
13617811 41 18187359978799465853
13631057 29 17977956679462118862
13782708 43 16773510101593271447
13911987 19 17972353744353100348
14068700 675 18047474422798215914
14347332 77 18411979123212046761
14675020 138 18199174252239956624
15001296 14 18342452690629745295
15183329 4 18409449224308059301
15324884 4 17536627297407106464
15664445 248 18262238927436480996
15799311 1 18339938116348203355
17492 54 18188793716039073614
17909252 39 18335419028462199281
19026451 147 18340771421260307466
19315092 285 18131068212354648616
19319366 153 18271238455900327534
19958102 18 18409719674261593775
20511986 3 17988634255342054421
20775438 99 18335691797620082595
20775530 9 18121772834022677918
21285901 2 17603859018487504021
21703447 108 18201995525709451400
23522609 53 17986981651238705769
23559900 14 18335423473578965547
23569914 152 17541906847595941055
238 59 18261690232974770266
239999 70 18131636707369318076
25222932 49 17130132342211263413
27425 322 16661770075117974281
3004659 81 18273500078251282661
345986 75 17703226209163036401
404807 14 17836655123976582259
4073 2 18267024041338209403
4340502 62 17988073530055449128
44280117 145 17403179197931100166
444735 86 17984969643280146447
46194498 28 17894911849477379061
463206 1 18270396217003054035
513532 50 18060420248543426386
59682541 52 18335695036551807519
70251023 43 18263083210532023906
7970288 3 17910959037038755070

> <PUBCHEM_SHAPE_MULTIPOLES>
620.11
13.97
4.78
1.49
30.13
4.56
0.08
5.28
-3.2
-8.51
0.24
-1.18
-0.5
-0.75

> <PUBCHEM_SHAPE_SELFOVERLAP>
1357.032

> <PUBCHEM_SHAPE_VOLUME>
336.8

> <PUBCHEM_COORDINATE_TYPE>
2
5
10

$$$$
