38027816
  -OEChem-12032416253D

 67 69  0     1  0  0  0  0  0999 V2000
   -1.4109    2.6271    2.3395 O   0  0  0  0  0  0  0  0  0  0  0  0
    1.7878   -1.8250   -2.4242 O   0  0  0  0  0  0  0  0  0  0  0  0
   -5.4954   -1.2367   -1.6736 O   0  0  0  0  0  0  0  0  0  0  0  0
    3.0517   -0.2183   -1.3256 N   0  0  0  0  0  0  0  0  0  0  0  0
   -1.0491    0.3416    2.5548 N   0  0  0  0  0  0  0  0  0  0  0  0
    2.0134   -4.3534    0.9249 N   0  0  0  0  0  0  0  0  0  0  0  0
    4.0754   -3.2282    1.4621 N   0  0  0  0  0  0  0  0  0  0  0  0
    0.7640    1.7320   -1.2470 C   0  0  1  0  0  0  0  0  0  0  0  0
    2.2203    2.0485   -1.6700 C   0  0  1  0  0  0  0  0  0  0  0  0
    0.2488    2.7933   -0.2630 C   0  0  0  0  0  0  0  0  0  0  0  0
    1.1174    2.8818    1.0060 C   0  0  2  0  0  0  0  0  0  0  0  0
   -0.1735    1.6465   -2.4554 C   0  0  0  0  0  0  0  0  0  0  0  0
    2.5953    2.9269    0.6747 C   0  0  0  0  0  0  0  0  0  0  0  0
    3.0682    2.5635   -0.5307 C   0  0  0  0  0  0  0  0  0  0  0  0
    2.8943    0.8211   -2.2939 C   0  0  0  0  0  0  0  0  0  0  0  0
    0.8060    1.7315    1.9698 C   0  0  0  0  0  0  0  0  0  0  0  0
   -0.6053    3.0423   -2.8935 C   0  0  0  0  0  0  0  0  0  0  0  0
   -1.3872    0.7828   -2.1273 C   0  0  0  0  0  0  0  0  0  0  0  0
    3.5141    3.4433    1.7469 C   0  0  0  0  0  0  0  0  0  0  0  0
   -0.6669    1.6509    2.3019 C   0  0  0  0  0  0  0  0  0  0  0  0
    2.4773   -1.4810   -1.4679 C   0  0  0  0  0  0  0  0  0  0  0  0
   -2.4011   -0.0329    2.9004 C   0  0  0  0  0  0  0  0  0  0  0  0
    2.7135   -2.4425   -0.3603 C   0  0  0  0  0  0  0  0  0  0  0  0
   -3.2236   -0.3527    1.6856 C   0  0  0  0  0  0  0  0  0  0  0  0
    1.8308   -3.4633   -0.0726 C   0  0  0  0  0  0  0  0  0  0  0  0
    3.8296   -2.3728    0.4483 C   0  0  0  0  0  0  0  0  0  0  0  0
   -4.3809    0.3774    1.4143 C   0  0  0  0  0  0  0  0  0  0  0  0
   -2.8299   -1.3798    0.8280 C   0  0  0  0  0  0  0  0  0  0  0  0
   -5.1445    0.0801    0.2857 C   0  0  0  0  0  0  0  0  0  0  0  0
   -3.5935   -1.6773   -0.3007 C   0  0  0  0  0  0  0  0  0  0  0  0
   -4.7508   -0.9473   -0.5718 C   0  0  0  0  0  0  0  0  0  0  0  0
    3.1399   -4.1801    1.6419 C   0  0  0  0  0  0  0  0  0  0  0  0
   -5.0353   -2.2994   -2.5074 C   0  0  0  0  0  0  0  0  0  0  0  0
    0.7472    0.7646   -0.7301 H   0  0  0  0  0  0  0  0  0  0  0  0
    2.2176    2.8398   -2.4303 H   0  0  0  0  0  0  0  0  0  0  0  0
   -0.8051    2.6319   -0.0254 H   0  0  0  0  0  0  0  0  0  0  0  0
    0.3037    3.7908   -0.7197 H   0  0  0  0  0  0  0  0  0  0  0  0
    0.8501    3.8265    1.5003 H   0  0  0  0  0  0  0  0  0  0  0  0
    0.3340    1.1683   -3.2995 H   0  0  0  0  0  0  0  0  0  0  0  0
    4.1340    2.6614   -0.7282 H   0  0  0  0  0  0  0  0  0  0  0  0
    3.9022    1.0804   -2.6402 H   0  0  0  0  0  0  0  0  0  0  0  0
    2.3494    0.4561   -3.1687 H   0  0  0  0  0  0  0  0  0  0  0  0
    1.3347    1.8719    2.9206 H   0  0  0  0  0  0  0  0  0  0  0  0
    1.1541    0.7790    1.5517 H   0  0  0  0  0  0  0  0  0  0  0  0
   -1.3238    3.5058   -2.2094 H   0  0  0  0  0  0  0  0  0  0  0  0
   -1.1186    2.9725   -3.8607 H   0  0  0  0  0  0  0  0  0  0  0  0
    0.2409    3.7195   -3.0420 H   0  0  0  0  0  0  0  0  0  0  0  0
   -2.0414    0.6924   -3.0016 H   0  0  0  0  0  0  0  0  0  0  0  0
   -1.9856    1.1995   -1.3115 H   0  0  0  0  0  0  0  0  0  0  0  0
   -1.0795   -0.2290   -1.8423 H   0  0  0  0  0  0  0  0  0  0  0  0
    3.2004    4.4419    2.0675 H   0  0  0  0  0  0  0  0  0  0  0  0
    4.5504    3.5192    1.4006 H   0  0  0  0  0  0  0  0  0  0  0  0
    3.5059    2.7789    2.6162 H   0  0  0  0  0  0  0  0  0  0  0  0
    3.6139   -0.0102   -0.5073 H   0  0  0  0  0  0  0  0  0  0  0  0
   -0.3594   -0.4019    2.4960 H   0  0  0  0  0  0  0  0  0  0  0  0
   -2.8534    0.7780    3.4826 H   0  0  0  0  0  0  0  0  0  0  0  0
   -2.3477   -0.9137    3.5499 H   0  0  0  0  0  0  0  0  0  0  0  0
    0.9184   -3.6069   -0.6428 H   0  0  0  0  0  0  0  0  0  0  0  0
    4.6093   -1.6317    0.3093 H   0  0  0  0  0  0  0  0  0  0  0  0
   -4.6993    1.1812    2.0727 H   0  0  0  0  0  0  0  0  0  0  0  0
   -1.9316   -1.9579    1.0291 H   0  0  0  0  0  0  0  0  0  0  0  0
   -6.0446    0.6525    0.0790 H   0  0  0  0  0  0  0  0  0  0  0  0
   -3.2297   -2.4867   -0.9243 H   0  0  0  0  0  0  0  0  0  0  0  0
    3.3119   -4.8809    2.4496 H   0  0  0  0  0  0  0  0  0  0  0  0
   -5.7463   -2.3921   -3.3348 H   0  0  0  0  0  0  0  0  0  0  0  0
   -5.0362   -3.2571   -1.9760 H   0  0  0  0  0  0  0  0  0  0  0  0
   -4.0593   -2.0703   -2.9486 H   0  0  0  0  0  0  0  0  0  0  0  0
  1 20  2  0  0  0  0
  2 21  2  0  0  0  0
  3 31  1  0  0  0  0
  3 33  1  0  0  0  0
  4 15  1  0  0  0  0
  4 21  1  0  0  0  0
  4 54  1  0  0  0  0
  5 20  1  0  0  0  0
  5 22  1  0  0  0  0
  5 55  1  0  0  0  0
  6 25  2  0  0  0  0
  6 32  1  0  0  0  0
  7 26  1  0  0  0  0
  7 32  2  0  0  0  0
  8  9  1  0  0  0  0
  8 10  1  0  0  0  0
  8 12  1  0  0  0  0
  8 34  1  0  0  0  0
  9 14  1  0  0  0  0
  9 15  1  0  0  0  0
  9 35  1  0  0  0  0
 10 11  1  0  0  0  0
 10 36  1  0  0  0  0
 10 37  1  0  0  0  0
 11 13  1  0  0  0  0
 11 16  1  0  0  0  0
 11 38  1  0  0  0  0
 12 17  1  0  0  0  0
 12 18  1  0  0  0  0
 12 39  1  0  0  0  0
 13 14  2  0  0  0  0
 13 19  1  0  0  0  0
 14 40  1  0  0  0  0
 15 41  1  0  0  0  0
 15 42  1  0  0  0  0
 16 20  1  0  0  0  0
 16 43  1  0  0  0  0
 16 44  1  0  0  0  0
 17 45  1  0  0  0  0
 17 46  1  0  0  0  0
 17 47  1  0  0  0  0
 18 48  1  0  0  0  0
 18 49  1  0  0  0  0
 18 50  1  0  0  0  0
 19 51  1  0  0  0  0
 19 52  1  0  0  0  0
 19 53  1  0  0  0  0
 21 23  1  0  0  0  0
 22 24  1  0  0  0  0
 22 56  1  0  0  0  0
 22 57  1  0  0  0  0
 23 25  1  0  0  0  0
 23 26  2  0  0  0  0
 24 27  2  0  0  0  0
 24 28  1  0  0  0  0
 25 58  1  0  0  0  0
 26 59  1  0  0  0  0
 27 29  1  0  0  0  0
 27 60  1  0  0  0  0
 28 30  2  0  0  0  0
 28 61  1  0  0  0  0
 29 31  2  0  0  0  0
 29 62  1  0  0  0  0
 30 31  1  0  0  0  0
 30 63  1  0  0  0  0
 32 64  1  0  0  0  0
 33 65  1  0  0  0  0
 33 66  1  0  0  0  0
 33 67  1  0  0  0  0
M  END
> <PUBCHEM_COMPOUND_CID>
38027816

> <PUBCHEM_CONFORMER_RMSD>
1.2

> <PUBCHEM_CONFORMER_DIVERSEORDER>
1
36
35
89
64
8
34
32
77
4
55
15
17
27
71
19
31
65
38
2
85
76
58
60
22
50
68
46
25
74
39
66
67
92
81
29
5
83
21
62
63
48
59
52
51
10
44
73
18
93
40
91
13
75
82
45
26
41
69
61
79
12
72
9
87
43
11
54
7
70
20
78
24
84
3
47
33
30
57
80
86
28
23
6
16
88
56
14
90
37
49
94
53
42

> <PUBCHEM_MMFF94_PARTIAL_CHARGES>
38
1 -0.57
11 0.14
13 -0.28
14 -0.29
15 0.3
16 0.06
19 0.14
2 -0.57
20 0.57
21 0.54
22 0.44
23 0.09
24 -0.14
25 0.16
26 0.16
27 -0.15
28 -0.15
29 -0.15
3 -0.36
30 -0.15
31 0.08
32 0.47
33 0.28
4 -0.73
40 0.15
5 -0.73
54 0.37
55 0.37
58 0.15
59 0.15
6 -0.62
60 0.15
61 0.15
62 0.15
63 0.15
64 0.15
7 -0.62
9 0.14

> <PUBCHEM_EFFECTIVE_ROTOR_COUNT>
11.8

> <PUBCHEM_PHARMACOPHORE_FEATURES>
11
1 1 acceptor
1 2 acceptor
1 3 acceptor
1 4 donor
1 5 donor
1 6 acceptor
3 12 17 18 hydrophobe
3 6 7 32 cation
6 24 27 28 29 30 31 rings
6 6 7 23 25 26 32 rings
6 8 9 10 11 13 14 rings

> <PUBCHEM_HEAVY_ATOM_COUNT>
33

> <PUBCHEM_ATOM_DEF_STEREO_COUNT>
3

> <PUBCHEM_ATOM_UDEF_STEREO_COUNT>
0

> <PUBCHEM_BOND_DEF_STEREO_COUNT>
0

> <PUBCHEM_BOND_UDEF_STEREO_COUNT>
0

> <PUBCHEM_ISOTOPIC_ATOM_COUNT>
0

> <PUBCHEM_COMPONENT_COUNT>
1

> <PUBCHEM_CACTVS_TAUTO_COUNT>
4

> <PUBCHEM_CONFORMER_ID>
0244422800000001

> <PUBCHEM_MMFF94_ENERGY>
83.906

> <PUBCHEM_FEATURE_SELFOVERLAP>
55.821

> <PUBCHEM_SHAPE_FINGERPRINT>
10032420 55 17985016836449418080
11285246 1 17026003917682965590
11552529 35 17472988298925778274
12156800 1 17173455041227659355
13383668 262 17623257866005126351
14114207 22 18121470661898904626
14251757 17 15792313517497957379
14674994 50 17541659409480656774
14705955 166 15120151113977452491
15119646 57 9940942522572841162
19026451 147 18131631218211924087
19315092 285 18128517418873044519
20775530 9 18044946670950420034
35225 105 17185346156365924951
4066623 53 18265317436147116717
4394409 98 17916009172118951895
469060 322 15836999787358809778
5081480 168 17822285735414164817
513532 50 17823117056314855659

> <PUBCHEM_SHAPE_MULTIPOLES>
641.59
9.2
5.54
3.39
11.94
4.05
-0.26
5.28
-1.13
-7.85
1.25
1.2
-1.4
-1.56

> <PUBCHEM_SHAPE_SELFOVERLAP>
1342.826

> <PUBCHEM_SHAPE_VOLUME>
358.8

> <PUBCHEM_COORDINATE_TYPE>
2
5
10

$$$$
