11883066
  -OEChem-12032416123D

 70 74  0     1  0  0  0  0  0999 V2000
   -0.7224    3.1544    0.3703 S   0  0  0  0  0  0  0  0  0  0  0  0
   -7.4511   -0.7901   -0.5203 O   0  0  0  0  0  0  0  0  0  0  0  0
   -7.4509    0.8649    1.2134 O   0  0  0  0  0  0  0  0  0  0  0  0
    0.4784   -1.5502   -1.8588 O   0  0  0  0  0  0  0  0  0  0  0  0
    3.2275    0.9158   -0.4970 O   0  0  0  0  0  0  0  0  0  0  0  0
    4.0332    4.3035    0.1833 O   0  0  0  0  0  0  0  0  0  0  0  0
    0.3266    0.8589   -0.1980 N   0  0  0  0  0  0  0  0  0  0  0  0
    1.1413   -3.1490   -0.3077 N   0  0  0  0  0  0  0  0  0  0  0  0
    1.8393    2.7235    0.0131 N   0  0  0  0  0  0  0  0  0  0  0  0
   -3.1649   -0.7078    0.2738 C   0  0  2  0  0  0  0  0  0  0  0  0
   -3.9098    0.6131   -0.2118 C   0  0  1  0  0  0  0  0  0  0  0  0
   -5.4845    0.6213   -0.1213 C   0  0  1  0  0  0  0  0  0  0  0  0
   -1.6746   -0.6733   -0.3019 C   0  0  1  0  0  0  0  0  0  0  0  0
   -3.8857   -1.9506   -0.3102 C   0  0  0  0  0  0  0  0  0  0  0  0
   -6.0381   -0.7095   -0.7047 C   0  0  1  0  0  0  0  0  0  0  0  0
   -3.2414    1.8910    0.3741 C   0  0  0  0  0  0  0  0  0  0  0  0
   -5.3924   -1.9481   -0.0936 C   0  0  0  0  0  0  0  0  0  0  0  0
   -3.1182   -0.8394    1.8161 C   0  0  0  0  0  0  0  0  0  0  0  0
   -1.0385    0.6746   -0.0787 C   0  0  0  0  0  0  0  0  0  0  0  0
   -6.0434    0.8760    1.2961 C   0  0  0  0  0  0  0  0  0  0  0  0
   -6.0369    1.7775   -1.0022 C   0  0  0  0  0  0  0  0  0  0  0  0
   -1.7615    1.8152    0.2055 C   0  0  0  0  0  0  0  0  0  0  0  0
   -0.7719   -1.8100    0.1964 C   0  0  0  0  0  0  0  0  0  0  0  0
    0.3326   -2.1277   -0.7848 C   0  0  0  0  0  0  0  0  0  0  0  0
    0.6077    2.1244    0.0251 C   0  0  0  0  0  0  0  0  0  0  0  0
    2.2769   -3.6636   -1.0381 C   0  0  0  0  0  0  0  0  0  0  0  0
    3.0858    2.1096   -0.2430 C   0  0  0  0  0  0  0  0  0  0  0  0
    3.5581   -3.5007   -0.2725 C   0  0  0  0  0  0  0  0  0  0  0  0
    4.2540    3.0025   -0.1405 C   0  0  0  0  0  0  0  0  0  0  0  0
    4.3181   -2.3406   -0.4237 C   0  0  0  0  0  0  0  0  0  0  0  0
    3.9884   -4.5087    0.5903 C   0  0  0  0  0  0  0  0  0  0  0  0
    5.5983    2.7699   -0.3166 C   0  0  0  0  0  0  0  0  0  0  0  0
    5.5083   -2.1889    0.2877 C   0  0  0  0  0  0  0  0  0  0  0  0
    5.1786   -4.3568    1.3017 C   0  0  0  0  0  0  0  0  0  0  0  0
    6.2449    4.0075   -0.0861 C   0  0  0  0  0  0  0  0  0  0  0  0
    5.9385   -3.1968    1.1503 C   0  0  0  0  0  0  0  0  0  0  0  0
    5.2498    4.9083    0.2145 C   0  0  0  0  0  0  0  0  0  0  0  0
   -3.7048    0.6489   -1.2960 H   0  0  0  0  0  0  0  0  0  0  0  0
   -1.7763   -0.7630   -1.3939 H   0  0  0  0  0  0  0  0  0  0  0  0
   -3.6966   -2.0111   -1.3902 H   0  0  0  0  0  0  0  0  0  0  0  0
   -3.4834   -2.8736    0.1222 H   0  0  0  0  0  0  0  0  0  0  0  0
   -5.8609   -0.7241   -1.7884 H   0  0  0  0  0  0  0  0  0  0  0  0
   -3.6169    2.7820   -0.1401 H   0  0  0  0  0  0  0  0  0  0  0  0
   -3.4743    2.0017    1.4385 H   0  0  0  0  0  0  0  0  0  0  0  0
   -5.8228   -2.8457   -0.5561 H   0  0  0  0  0  0  0  0  0  0  0  0
   -5.6424   -2.0315    0.9698 H   0  0  0  0  0  0  0  0  0  0  0  0
   -2.6178    0.0066    2.2950 H   0  0  0  0  0  0  0  0  0  0  0  0
   -4.1044   -0.9378    2.2649 H   0  0  0  0  0  0  0  0  0  0  0  0
   -2.5752   -1.7410    2.1204 H   0  0  0  0  0  0  0  0  0  0  0  0
   -5.7587    0.1079    2.0107 H   0  0  0  0  0  0  0  0  0  0  0  0
   -5.7310    1.8486    1.6883 H   0  0  0  0  0  0  0  0  0  0  0  0
   -5.6118    1.7387   -2.0118 H   0  0  0  0  0  0  0  0  0  0  0  0
   -5.8002    2.7600   -0.5807 H   0  0  0  0  0  0  0  0  0  0  0  0
   -7.1257    1.7317   -1.1172 H   0  0  0  0  0  0  0  0  0  0  0  0
   -0.3203   -1.5630    1.1655 H   0  0  0  0  0  0  0  0  0  0  0  0
   -1.3389   -2.7379    0.3217 H   0  0  0  0  0  0  0  0  0  0  0  0
   -7.7567   -1.6122   -0.9400 H   0  0  0  0  0  0  0  0  0  0  0  0
   -7.7951    1.0355    2.1065 H   0  0  0  0  0  0  0  0  0  0  0  0
    0.9233   -3.5763    0.5882 H   0  0  0  0  0  0  0  0  0  0  0  0
    1.8340    3.7194    0.2196 H   0  0  0  0  0  0  0  0  0  0  0  0
    2.0819   -4.7253   -1.2293 H   0  0  0  0  0  0  0  0  0  0  0  0
    2.3548   -3.1800   -2.0186 H   0  0  0  0  0  0  0  0  0  0  0  0
    3.9966   -1.5547   -1.1006 H   0  0  0  0  0  0  0  0  0  0  0  0
    3.4044   -5.4163    0.7185 H   0  0  0  0  0  0  0  0  0  0  0  0
    6.0590    1.8277   -0.5780 H   0  0  0  0  0  0  0  0  0  0  0  0
    6.1005   -1.2863    0.1683 H   0  0  0  0  0  0  0  0  0  0  0  0
    5.5135   -5.1414    1.9738 H   0  0  0  0  0  0  0  0  0  0  0  0
    7.3038    4.2168   -0.1329 H   0  0  0  0  0  0  0  0  0  0  0  0
    6.8653   -3.0787    1.7041 H   0  0  0  0  0  0  0  0  0  0  0  0
    5.2426    5.9599    0.4608 H   0  0  0  0  0  0  0  0  0  0  0  0
  1 22  1  0  0  0  0
  1 25  1  0  0  0  0
  2 15  1  0  0  0  0
  2 57  1  0  0  0  0
  3 20  1  0  0  0  0
  3 58  1  0  0  0  0
  4 24  2  0  0  0  0
  5 27  2  0  0  0  0
  6 29  1  0  0  0  0
  6 37  1  0  0  0  0
  7 19  1  0  0  0  0
  7 25  2  0  0  0  0
  8 24  1  0  0  0  0
  8 26  1  0  0  0  0
  8 59  1  0  0  0  0
  9 25  1  0  0  0  0
  9 27  1  0  0  0  0
  9 60  1  0  0  0  0
 10 11  1  0  0  0  0
 10 13  1  0  0  0  0
 10 14  1  0  0  0  0
 10 18  1  0  0  0  0
 11 12  1  0  0  0  0
 11 16  1  0  0  0  0
 11 38  1  0  0  0  0
 12 15  1  0  0  0  0
 12 20  1  0  0  0  0
 12 21  1  0  0  0  0
 13 19  1  0  0  0  0
 13 23  1  0  0  0  0
 13 39  1  0  0  0  0
 14 17  1  0  0  0  0
 14 40  1  0  0  0  0
 14 41  1  0  0  0  0
 15 17  1  0  0  0  0
 15 42  1  0  0  0  0
 16 22  1  0  0  0  0
 16 43  1  0  0  0  0
 16 44  1  0  0  0  0
 17 45  1  0  0  0  0
 17 46  1  0  0  0  0
 18 47  1  0  0  0  0
 18 48  1  0  0  0  0
 18 49  1  0  0  0  0
 19 22  2  0  0  0  0
 20 50  1  0  0  0  0
 20 51  1  0  0  0  0
 21 52  1  0  0  0  0
 21 53  1  0  0  0  0
 21 54  1  0  0  0  0
 23 24  1  0  0  0  0
 23 55  1  0  0  0  0
 23 56  1  0  0  0  0
 26 28  1  0  0  0  0
 26 61  1  0  0  0  0
 26 62  1  0  0  0  0
 27 29  1  0  0  0  0
 28 30  2  0  0  0  0
 28 31  1  0  0  0  0
 29 32  2  0  0  0  0
 30 33  1  0  0  0  0
 30 63  1  0  0  0  0
 31 34  2  0  0  0  0
 31 64  1  0  0  0  0
 32 35  1  0  0  0  0
 32 65  1  0  0  0  0
 33 36  2  0  0  0  0
 33 66  1  0  0  0  0
 34 36  1  0  0  0  0
 34 67  1  0  0  0  0
 35 37  2  0  0  0  0
 35 68  1  0  0  0  0
 36 69  1  0  0  0  0
 37 70  1  0  0  0  0
M  END
> <PUBCHEM_COMPOUND_CID>
11883066

> <PUBCHEM_CONFORMER_RMSD>
1

> <PUBCHEM_CONFORMER_DIVERSEORDER>
1
52
41
62
35
26
25
33
61
34
44
55
47
6
64
18
46
58
49
28
56
10
48
17
59
38
5
45
13
39
23
50
36
8
53
57
42
31
30
15
19
37
7
21
54
60
32
20
63
16
43
14
4
11
51
65
2
29
12
3
40
9
24
22
27

> <PUBCHEM_MMFF94_PARTIAL_CHARGES>
42
1 -0.08
13 0.18
15 0.28
16 0.18
19 0.05
2 -0.68
20 0.28
22 -0.14
23 0.06
24 0.57
25 0.44
26 0.44
27 0.71
28 -0.14
29 0.05
3 -0.68
30 -0.15
31 -0.15
32 -0.15
33 -0.15
34 -0.15
35 -0.15
36 -0.15
37 -0.01
4 -0.57
5 -0.57
57 0.4
58 0.4
59 0.37
6 -0.28
60 0.37
63 0.15
64 0.15
65 0.15
66 0.15
67 0.15
68 0.15
69 0.15
7 -0.57
70 0.15
8 -0.73
9 -0.49

> <PUBCHEM_EFFECTIVE_ROTOR_COUNT>
10.2

> <PUBCHEM_PHARMACOPHORE_FEATURES>
14
1 2 acceptor
1 2 donor
1 3 acceptor
1 3 donor
1 4 acceptor
1 5 acceptor
1 6 acceptor
1 8 donor
1 9 donor
5 1 7 19 22 25 rings
5 6 29 32 35 37 rings
6 10 11 12 14 15 17 rings
6 10 11 13 16 19 22 rings
6 28 30 31 33 34 36 rings

> <PUBCHEM_HEAVY_ATOM_COUNT>
37

> <PUBCHEM_ATOM_DEF_STEREO_COUNT>
5

> <PUBCHEM_ATOM_UDEF_STEREO_COUNT>
0

> <PUBCHEM_BOND_DEF_STEREO_COUNT>
0

> <PUBCHEM_BOND_UDEF_STEREO_COUNT>
0

> <PUBCHEM_ISOTOPIC_ATOM_COUNT>
0

> <PUBCHEM_COMPONENT_COUNT>
1

> <PUBCHEM_CACTVS_TAUTO_COUNT>
6

> <PUBCHEM_CONFORMER_ID>
00B5523A00000001

> <PUBCHEM_MMFF94_ENERGY>
98.8148

> <PUBCHEM_FEATURE_SELFOVERLAP>
71.195

> <PUBCHEM_SHAPE_FINGERPRINT>
10050765 1 18410573968768387933
10290309 65 18337944705909739948
11135926 11 18338509841304819116
11136131 41 18335410323154464338
11719270 70 18338510967430386216
11963148 33 18051686943950007623
12107183 9 18125448501109795881
12107698 1 18338232644147086275
12440605 4 18197501933567240755
12660671 118 18272658926634935374
12677640 9 17908985405282781752
12857493 111 18122334692685621924
12977781 61 17823154456452525819
13560911 43 18337107853095842554
14790565 3 17978513366751777324
15200665 1 17619912103106594474
15347591 1 18410291407497020383
15400415 2 18050003587120604948
15439362 3 18408882962159184833
15815584 197 18122087512984956671
15927050 60 18197214974122631670
16067689 302 18341335608786945367
17627616 140 18339641260703338942
19319366 153 18196652015827091508
19611394 137 18189351112590251978
20609170 92 18187912994704580549
21133665 82 18124319561536888108
21344244 246 18338790221956016527
21360443 120 18336548343158218740
22311459 1 18267023864612352831
23559900 14 18338507535466088947
3411729 13 18412266168043636486
4073 2 18193000532598407536
4149490 64 18335145298240101011
5385378 56 18340216262387811817
563151 97 18050842518554541310
5776283 40 18337404846311574316
6669772 16 18336546118022053438
67856867 119 18410294692245454735
9896288 288 17760088815247697698
99344 41 18340203085285774644
9961470 85 18268145547778344770

> <PUBCHEM_SHAPE_MULTIPOLES>
721
18.03
6.96
1.08
11.31
1.19
-0.15
1.35
-2.23
-18.68
-0.56
0.47
-0.58
-1.52

> <PUBCHEM_SHAPE_SELFOVERLAP>
1543.7

> <PUBCHEM_SHAPE_VOLUME>
401

> <PUBCHEM_COORDINATE_TYPE>
2
5
10

$$$$
