24039275
  -OEChem-12032416333D

 98103  0     1  0  0  0  0  0999 V2000
   -1.4305    1.0394    0.2735 S   0  0  0  0  0  0  0  0  0  0  0  0
    3.8034   -3.1376   -0.8707 O   0  0  0  0  0  0  0  0  0  0  0  0
    8.2044   -1.6657    1.7899 O   0  0  0  0  0  0  0  0  0  0  0  0
   -4.0024   -2.6295   -0.9885 O   0  0  0  0  0  0  0  0  0  0  0  0
   11.3788    4.3213   -1.2339 O   0  0  0  0  0  0  0  0  0  0  0  0
   -1.3602   -1.4735   -0.3320 N   0  0  0  0  0  0  0  0  0  0  0  0
    7.7894   -1.0217   -0.3994 N   0  0  0  0  0  0  0  0  0  0  0  0
   -3.5196   -0.4041   -0.3801 N   0  0  0  0  0  0  0  0  0  0  0  0
    9.9817    1.9930   -0.3803 N   0  0  0  0  0  0  0  0  0  0  0  0
  -10.3178    0.9840   -0.4233 N   0  0  0  0  0  0  0  0  0  0  0  0
  -12.0206    2.5796    1.2834 N   0  0  0  0  0  0  0  0  0  0  0  0
    2.4223   -0.1494    1.0865 C   0  0  1  0  0  0  0  0  0  0  0  0
    2.4700   -1.2983    0.0035 C   0  0  1  0  0  0  0  0  0  0  0  0
    3.6775   -2.2493    0.2389 C   0  0  2  0  0  0  0  0  0  0  0  0
    5.0170   -1.4929    0.3737 C   0  0  1  0  0  0  0  0  0  0  0  0
    3.7897    0.5713    1.1420 C   0  0  0  0  0  0  0  0  0  0  0  0
    1.0847   -2.0559   -0.1167 C   0  0  1  0  0  0  0  0  0  0  0  0
    4.9533   -0.3728    1.4119 C   0  0  0  0  0  0  0  0  0  0  0  0
    1.3512    0.9120    0.6837 C   0  0  0  0  0  0  0  0  0  0  0  0
    2.0826   -0.6943    2.4984 C   0  0  0  0  0  0  0  0  0  0  0  0
    6.1750   -2.4398    0.7118 C   0  0  2  0  0  0  0  0  0  0  0  0
   -0.0622   -1.0752   -0.0646 C   0  0  0  0  0  0  0  0  0  0  0  0
    0.0756    0.2466    0.3051 C   0  0  0  0  0  0  0  0  0  0  0  0
    0.9752   -2.9232   -1.3794 C   0  0  0  0  0  0  0  0  0  0  0  0
    5.9003   -3.1585    2.0285 C   0  0  0  0  0  0  0  0  0  0  0  0
    7.4948   -1.6791    0.7863 C   0  0  0  0  0  0  0  0  0  0  0  0
   -2.1630   -0.4406   -0.1957 C   0  0  0  0  0  0  0  0  0  0  0  0
    8.9879   -0.2361   -0.5800 C   0  0  0  0  0  0  0  0  0  0  0  0
    8.7611    1.2146   -0.1806 C   0  0  0  0  0  0  0  0  0  0  0  0
   -4.3456   -1.4753   -0.7575 C   0  0  0  0  0  0  0  0  0  0  0  0
   -5.7952   -1.1579   -0.8541 C   0  0  0  0  0  0  0  0  0  0  0  0
    9.9355    3.2430    0.3911 C   0  0  0  0  0  0  0  0  0  0  0  0
   10.1851    2.2882   -1.8054 C   0  0  0  0  0  0  0  0  0  0  0  0
   11.2132    4.0438    0.1572 C   0  0  0  0  0  0  0  0  0  0  0  0
   11.4576    3.1106   -1.9871 C   0  0  0  0  0  0  0  0  0  0  0  0
   -6.2070    0.1437   -1.1397 C   0  0  0  0  0  0  0  0  0  0  0  0
   -6.7433   -2.1624   -0.6591 C   0  0  0  0  0  0  0  0  0  0  0  0
   -8.5147   -0.5634   -1.0355 C   0  0  0  0  0  0  0  0  0  0  0  0
   -7.5668    0.4411   -1.2305 C   0  0  0  0  0  0  0  0  0  0  0  0
   -8.1030   -1.8652   -0.7498 C   0  0  0  0  0  0  0  0  0  0  0  0
   -9.9686   -0.2460   -1.1313 C   0  0  0  0  0  0  0  0  0  0  0  0
  -11.5955    1.5200   -0.9084 C   0  0  0  0  0  0  0  0  0  0  0  0
  -10.3762    0.7534    1.0252 C   0  0  0  0  0  0  0  0  0  0  0  0
  -11.9638    2.8089   -0.1655 C   0  0  0  0  0  0  0  0  0  0  0  0
  -10.7431    2.0426    1.7681 C   0  0  0  0  0  0  0  0  0  0  0  0
  -12.3682    3.8106    1.9905 C   0  0  0  0  0  0  0  0  0  0  0  0
    2.6353   -0.8103   -0.9707 H   0  0  0  0  0  0  0  0  0  0  0  0
    3.4535   -2.8581    1.1167 H   0  0  0  0  0  0  0  0  0  0  0  0
    5.2127   -1.0271   -0.6013 H   0  0  0  0  0  0  0  0  0  0  0  0
    3.9749    1.0849    0.1889 H   0  0  0  0  0  0  0  0  0  0  0  0
    3.7748    1.3534    1.9120 H   0  0  0  0  0  0  0  0  0  0  0  0
    0.9752   -2.7197    0.7513 H   0  0  0  0  0  0  0  0  0  0  0  0
    4.8545   -0.7515    2.4317 H   0  0  0  0  0  0  0  0  0  0  0  0
    5.8714    0.2258    1.3969 H   0  0  0  0  0  0  0  0  0  0  0  0
    1.7022    1.4905   -0.1811 H   0  0  0  0  0  0  0  0  0  0  0  0
    1.1943    1.6225    1.5048 H   0  0  0  0  0  0  0  0  0  0  0  0
    1.0725   -1.1110    2.5554 H   0  0  0  0  0  0  0  0  0  0  0  0
    2.1379    0.1067    3.2449 H   0  0  0  0  0  0  0  0  0  0  0  0
    2.7690   -1.4837    2.8169 H   0  0  0  0  0  0  0  0  0  0  0  0
    6.2880   -3.1934   -0.0781 H   0  0  0  0  0  0  0  0  0  0  0  0
    1.2404   -2.3540   -2.2770 H   0  0  0  0  0  0  0  0  0  0  0  0
    1.6151   -3.8065   -1.3213 H   0  0  0  0  0  0  0  0  0  0  0  0
   -0.0431   -3.3030   -1.5213 H   0  0  0  0  0  0  0  0  0  0  0  0
    3.9550   -2.6035   -1.6689 H   0  0  0  0  0  0  0  0  0  0  0  0
    6.7408   -3.8281    2.2546 H   0  0  0  0  0  0  0  0  0  0  0  0
    5.0209   -3.8049    1.9914 H   0  0  0  0  0  0  0  0  0  0  0  0
    5.8188   -2.4939    2.8921 H   0  0  0  0  0  0  0  0  0  0  0  0
    7.1779   -1.1272   -1.2025 H   0  0  0  0  0  0  0  0  0  0  0  0
   -3.9322    0.5004   -0.1747 H   0  0  0  0  0  0  0  0  0  0  0  0
    9.7970   -0.6787    0.0126 H   0  0  0  0  0  0  0  0  0  0  0  0
    9.2512   -0.3364   -1.6367 H   0  0  0  0  0  0  0  0  0  0  0  0
    7.9079    1.6444   -0.7223 H   0  0  0  0  0  0  0  0  0  0  0  0
    8.4824    1.2242    0.8819 H   0  0  0  0  0  0  0  0  0  0  0  0
    9.8459    3.0285    1.4622 H   0  0  0  0  0  0  0  0  0  0  0  0
    9.0667    3.8427    0.0896 H   0  0  0  0  0  0  0  0  0  0  0  0
    9.3309    2.8512   -2.2039 H   0  0  0  0  0  0  0  0  0  0  0  0
   10.2923    1.3733   -2.3958 H   0  0  0  0  0  0  0  0  0  0  0  0
   12.0973    3.5140    0.5325 H   0  0  0  0  0  0  0  0  0  0  0  0
   11.1537    5.0023    0.6828 H   0  0  0  0  0  0  0  0  0  0  0  0
   11.5786    3.3825   -3.0407 H   0  0  0  0  0  0  0  0  0  0  0  0
   12.3498    2.5485   -1.6851 H   0  0  0  0  0  0  0  0  0  0  0  0
   -5.5050    0.9481   -1.3370 H   0  0  0  0  0  0  0  0  0  0  0  0
   -6.4442   -3.1819   -0.4303 H   0  0  0  0  0  0  0  0  0  0  0  0
   -7.8648    1.4577   -1.4736 H   0  0  0  0  0  0  0  0  0  0  0  0
   -8.8303   -2.6576   -0.5947 H   0  0  0  0  0  0  0  0  0  0  0  0
  -10.1807   -0.1351   -2.2039 H   0  0  0  0  0  0  0  0  0  0  0  0
  -10.5886   -1.0851   -0.7880 H   0  0  0  0  0  0  0  0  0  0  0  0
  -12.3996    0.7811   -0.7900 H   0  0  0  0  0  0  0  0  0  0  0  0
  -11.5202    1.7531   -1.9775 H   0  0  0  0  0  0  0  0  0  0  0  0
  -11.1078   -0.0292    1.2695 H   0  0  0  0  0  0  0  0  0  0  0  0
   -9.4032    0.4159    1.4016 H   0  0  0  0  0  0  0  0  0  0  0  0
  -11.2368    3.5955   -0.4092 H   0  0  0  0  0  0  0  0  0  0  0  0
  -12.9431    3.1466   -0.5258 H   0  0  0  0  0  0  0  0  0  0  0  0
   -9.9373    2.7796    1.6482 H   0  0  0  0  0  0  0  0  0  0  0  0
  -10.8198    1.8142    2.8381 H   0  0  0  0  0  0  0  0  0  0  0  0
  -12.4539    3.6244    3.0669 H   0  0  0  0  0  0  0  0  0  0  0  0
  -13.3433    4.1827    1.6575 H   0  0  0  0  0  0  0  0  0  0  0  0
  -11.6259    4.6019    1.8356 H   0  0  0  0  0  0  0  0  0  0  0  0
  1 23  1  0  0  0  0
  1 27  1  0  0  0  0
  2 14  1  0  0  0  0
  2 64  1  0  0  0  0
  3 26  2  0  0  0  0
  4 30  2  0  0  0  0
  5 34  1  0  0  0  0
  5 35  1  0  0  0  0
  6 22  1  0  0  0  0
  6 27  2  0  0  0  0
  7 26  1  0  0  0  0
  7 28  1  0  0  0  0
  7 68  1  0  0  0  0
  8 27  1  0  0  0  0
  8 30  1  0  0  0  0
  8 69  1  0  0  0  0
  9 29  1  0  0  0  0
  9 32  1  0  0  0  0
  9 33  1  0  0  0  0
 10 41  1  0  0  0  0
 10 42  1  0  0  0  0
 10 43  1  0  0  0  0
 11 44  1  0  0  0  0
 11 45  1  0  0  0  0
 11 46  1  0  0  0  0
 12 13  1  0  0  0  0
 12 16  1  0  0  0  0
 12 19  1  0  0  0  0
 12 20  1  0  0  0  0
 13 14  1  0  0  0  0
 13 17  1  0  0  0  0
 13 47  1  0  0  0  0
 14 15  1  0  0  0  0
 14 48  1  0  0  0  0
 15 18  1  0  0  0  0
 15 21  1  0  0  0  0
 15 49  1  0  0  0  0
 16 18  1  0  0  0  0
 16 50  1  0  0  0  0
 16 51  1  0  0  0  0
 17 22  1  0  0  0  0
 17 24  1  0  0  0  0
 17 52  1  0  0  0  0
 18 53  1  0  0  0  0
 18 54  1  0  0  0  0
 19 23  1  0  0  0  0
 19 55  1  0  0  0  0
 19 56  1  0  0  0  0
 20 57  1  0  0  0  0
 20 58  1  0  0  0  0
 20 59  1  0  0  0  0
 21 25  1  0  0  0  0
 21 26  1  0  0  0  0
 21 60  1  0  0  0  0
 22 23  2  0  0  0  0
 24 61  1  0  0  0  0
 24 62  1  0  0  0  0
 24 63  1  0  0  0  0
 25 65  1  0  0  0  0
 25 66  1  0  0  0  0
 25 67  1  0  0  0  0
 28 29  1  0  0  0  0
 28 70  1  0  0  0  0
 28 71  1  0  0  0  0
 29 72  1  0  0  0  0
 29 73  1  0  0  0  0
 30 31  1  0  0  0  0
 31 36  2  0  0  0  0
 31 37  1  0  0  0  0
 32 34  1  0  0  0  0
 32 74  1  0  0  0  0
 32 75  1  0  0  0  0
 33 35  1  0  0  0  0
 33 76  1  0  0  0  0
 33 77  1  0  0  0  0
 34 78  1  0  0  0  0
 34 79  1  0  0  0  0
 35 80  1  0  0  0  0
 35 81  1  0  0  0  0
 36 39  1  0  0  0  0
 36 82  1  0  0  0  0
 37 40  2  0  0  0  0
 37 83  1  0  0  0  0
 38 39  2  0  0  0  0
 38 40  1  0  0  0  0
 38 41  1  0  0  0  0
 39 84  1  0  0  0  0
 40 85  1  0  0  0  0
 41 86  1  0  0  0  0
 41 87  1  0  0  0  0
 42 44  1  0  0  0  0
 42 88  1  0  0  0  0
 42 89  1  0  0  0  0
 43 45  1  0  0  0  0
 43 90  1  0  0  0  0
 43 91  1  0  0  0  0
 44 92  1  0  0  0  0
 44 93  1  0  0  0  0
 45 94  1  0  0  0  0
 45 95  1  0  0  0  0
 46 96  1  0  0  0  0
 46 97  1  0  0  0  0
 46 98  1  0  0  0  0
M  END
> <PUBCHEM_COMPOUND_CID>
24039275

> <PUBCHEM_CONFORMER_RMSD>
1.4

> <PUBCHEM_CONFORMER_DIVERSEORDER>
1
31
24
49
33
34
19
43
22
41
56
21
16
55
25
26
53
28
10
6
39
32
27
18
8
54
40
38
42
23
9
48
35
37
11
4
52
29
5
12
17
44
15
46
2
51
36
50
7
45
14
47
13
3
20
30

> <PUBCHEM_MMFF94_PARTIAL_CHARGES>
45
1 -0.08
10 -0.81
11 -0.81
14 0.28
17 0.18
19 0.18
2 -0.68
21 0.06
22 0.05
23 -0.14
26 0.57
27 0.44
28 0.3
29 0.27
3 -0.57
30 0.54
31 0.09
32 0.27
33 0.27
34 0.28
35 0.28
36 -0.15
37 -0.15
38 -0.14
39 -0.15
4 -0.57
40 -0.15
41 0.41
42 0.27
43 0.27
44 0.27
45 0.27
46 0.27
5 -0.56
6 -0.57
64 0.4
68 0.37
69 0.37
7 -0.73
8 -0.49
82 0.15
83 0.15
84 0.15
85 0.15
9 -0.81

> <PUBCHEM_EFFECTIVE_ROTOR_COUNT>
14.6

> <PUBCHEM_PHARMACOPHORE_FEATURES>
17
1 10 cation
1 11 cation
1 2 acceptor
1 2 donor
1 25 hydrophobe
1 3 acceptor
1 4 acceptor
1 5 acceptor
1 7 donor
1 8 donor
1 9 cation
5 1 6 22 23 27 rings
6 10 11 42 43 44 45 rings
6 12 13 14 15 16 18 rings
6 12 13 17 19 22 23 rings
6 31 36 37 38 39 40 rings
6 5 9 32 33 34 35 rings

> <PUBCHEM_HEAVY_ATOM_COUNT>
46

> <PUBCHEM_ATOM_DEF_STEREO_COUNT>
5

> <PUBCHEM_ATOM_UDEF_STEREO_COUNT>
1

> <PUBCHEM_BOND_DEF_STEREO_COUNT>
0

> <PUBCHEM_BOND_UDEF_STEREO_COUNT>
0

> <PUBCHEM_ISOTOPIC_ATOM_COUNT>
0

> <PUBCHEM_COMPONENT_COUNT>
1

> <PUBCHEM_CACTVS_TAUTO_COUNT>
6

> <PUBCHEM_CONFORMER_ID>
016ECF6B00000001

> <PUBCHEM_MMFF94_ENERGY>
116.0459

> <PUBCHEM_FEATURE_SELFOVERLAP>
86.357

> <PUBCHEM_SHAPE_FINGERPRINT>
10162869 55 9367052381790136147
11421887 21 18410017668089505740
12144603 126 18411416211164277463
12664476 115 18271233934217259645
13553643 46 18337669712645191069
14040221 8 18060137622425972585
14202775 3 10879988095070528277
15145344 44 18340209708769670444
15840311 113 18186800293480326862
16087824 20 18202278058049280979
16728433 110 17967529056125813830
20105231 36 12319468684280146044
21102433 48 8502655900269792513
21895431 317 7925916984366856009
3525247 94 9367348132805452737
4173938 188 13912332274582193701
45270241 37 18408038499704021254
474113 269 10735888292158155686
5028188 123 18130503141209986407
5381727 24 8214147352213534541
54583773 228 18337389443878368750
636783 248 18260267443116013841

> <PUBCHEM_SHAPE_MULTIPOLES>
897.14
56.13
4.47
1.73
54.79
3.32
-0.5
69.66
4.63
-8.24
0.06
-0.24
0.38
-9.34

> <PUBCHEM_SHAPE_SELFOVERLAP>
1882.093

> <PUBCHEM_SHAPE_VOLUME>
511.8

> <PUBCHEM_COORDINATE_TYPE>
2
5
10

$$$$
