45783782
  -OEChem-12032416263D

 47 50  0     1  0  0  0  0  0999 V2000
   -3.1920    3.5090    0.3674 O   0  0  0  0  0  0  0  0  0  0  0  0
   -0.4560   -1.7843    1.7843 O   0  0  0  0  0  0  0  0  0  0  0  0
   -2.9759   -0.5708   -0.5996 N   0  0  1  0  0  0  0  0  0  0  0  0
   -0.0291   -0.7836   -0.1735 N   0  0  0  0  0  0  0  0  0  0  0  0
    0.9092   -1.4712    1.7965 N   0  0  0  0  0  0  0  0  0  0  0  0
    4.7078   -0.0490    0.6300 N   0  0  0  0  0  0  0  0  0  0  0  0
    6.0761    1.0179   -1.0024 N   0  0  0  0  0  0  0  0  0  0  0  0
   -3.4103    0.6540    0.0680 C   0  0  0  0  0  0  0  0  0  0  0  0
   -2.4068   -1.5688    0.3280 C   0  0  1  0  0  0  0  0  0  0  0  0
   -4.0754   -1.2361   -1.2988 C   0  0  0  0  0  0  0  0  0  0  0  0
   -2.6939   -2.9282   -0.3360 C   0  0  0  0  0  0  0  0  0  0  0  0
   -3.4794   -2.5970   -1.5969 C   0  0  0  0  0  0  0  0  0  0  0  0
   -4.0340    1.6343   -0.9302 C   0  0  0  0  0  0  0  0  0  0  0  0
   -2.2307    1.3164    0.7856 C   0  0  0  0  0  0  0  0  0  0  0  0
   -4.3584    2.9560   -0.2424 C   0  0  0  0  0  0  0  0  0  0  0  0
   -2.6550    2.6557    1.3781 C   0  0  0  0  0  0  0  0  0  0  0  0
   -0.9320   -1.3459    0.5896 C   0  0  0  0  0  0  0  0  0  0  0  0
    1.0843   -0.8836    0.6090 C   0  0  0  0  0  0  0  0  0  0  0  0
    2.3579   -0.3874    0.1740 C   0  0  0  0  0  0  0  0  0  0  0  0
    2.5045    0.2176   -1.0694 C   0  0  0  0  0  0  0  0  0  0  0  0
    3.4803   -0.4954    0.9791 C   0  0  0  0  0  0  0  0  0  0  0  0
    3.7517    0.6893   -1.4640 C   0  0  0  0  0  0  0  0  0  0  0  0
    4.8118    0.5333   -0.5856 C   0  0  0  0  0  0  0  0  0  0  0  0
    7.2452    0.9178   -0.1908 C   0  0  0  0  0  0  0  0  0  0  0  0
   -4.1740    0.4132    0.8223 H   0  0  0  0  0  0  0  0  0  0  0  0
   -2.9393   -1.5521    1.2896 H   0  0  0  0  0  0  0  0  0  0  0  0
   -4.9646   -1.3429   -0.6647 H   0  0  0  0  0  0  0  0  0  0  0  0
   -4.3539   -0.7370   -2.2318 H   0  0  0  0  0  0  0  0  0  0  0  0
   -1.7925   -3.5014   -0.5786 H   0  0  0  0  0  0  0  0  0  0  0  0
   -3.3126   -3.5409    0.3310 H   0  0  0  0  0  0  0  0  0  0  0  0
   -4.2416   -3.3498   -1.8189 H   0  0  0  0  0  0  0  0  0  0  0  0
   -2.7983   -2.5378   -2.4551 H   0  0  0  0  0  0  0  0  0  0  0  0
   -4.9574    1.2417   -1.3687 H   0  0  0  0  0  0  0  0  0  0  0  0
   -3.3269    1.8244   -1.7483 H   0  0  0  0  0  0  0  0  0  0  0  0
   -1.8585    0.7174    1.6203 H   0  0  0  0  0  0  0  0  0  0  0  0
   -1.4139    1.4991    0.0764 H   0  0  0  0  0  0  0  0  0  0  0  0
   -5.1416    2.8310    0.5146 H   0  0  0  0  0  0  0  0  0  0  0  0
   -4.7232    3.6790   -0.9790 H   0  0  0  0  0  0  0  0  0  0  0  0
   -1.7877    3.1616    1.8145 H   0  0  0  0  0  0  0  0  0  0  0  0
   -3.3965    2.5237    2.1750 H   0  0  0  0  0  0  0  0  0  0  0  0
    1.6655    0.3348   -1.7504 H   0  0  0  0  0  0  0  0  0  0  0  0
    3.4508   -0.9539    1.9631 H   0  0  0  0  0  0  0  0  0  0  0  0
    3.8728    1.1616   -2.4335 H   0  0  0  0  0  0  0  0  0  0  0  0
    6.0910    1.6459   -1.7988 H   0  0  0  0  0  0  0  0  0  0  0  0
    7.4857   -0.1270    0.0312 H   0  0  0  0  0  0  0  0  0  0  0  0
    8.1022    1.3507   -0.7161 H   0  0  0  0  0  0  0  0  0  0  0  0
    7.1222    1.4618    0.7514 H   0  0  0  0  0  0  0  0  0  0  0  0
  1 15  1  0  0  0  0
  1 16  1  0  0  0  0
  2  5  1  0  0  0  0
  2 17  1  0  0  0  0
  3  8  1  0  0  0  0
  3  9  1  0  0  0  0
  3 10  1  0  0  0  0
  4 17  2  0  0  0  0
  4 18  1  0  0  0  0
  5 18  2  0  0  0  0
  6 21  1  0  0  0  0
  6 23  2  0  0  0  0
  7 23  1  0  0  0  0
  7 24  1  0  0  0  0
  7 44  1  0  0  0  0
  8 13  1  0  0  0  0
  8 14  1  0  0  0  0
  8 25  1  0  0  0  0
  9 11  1  0  0  0  0
  9 17  1  0  0  0  0
  9 26  1  0  0  0  0
 10 12  1  0  0  0  0
 10 27  1  0  0  0  0
 10 28  1  0  0  0  0
 11 12  1  0  0  0  0
 11 29  1  0  0  0  0
 11 30  1  0  0  0  0
 12 31  1  0  0  0  0
 12 32  1  0  0  0  0
 13 15  1  0  0  0  0
 13 33  1  0  0  0  0
 13 34  1  0  0  0  0
 14 16  1  0  0  0  0
 14 35  1  0  0  0  0
 14 36  1  0  0  0  0
 15 37  1  0  0  0  0
 15 38  1  0  0  0  0
 16 39  1  0  0  0  0
 16 40  1  0  0  0  0
 18 19  1  0  0  0  0
 19 20  1  0  0  0  0
 19 21  2  0  0  0  0
 20 22  2  0  0  0  0
 20 41  1  0  0  0  0
 21 42  1  0  0  0  0
 22 23  1  0  0  0  0
 22 43  1  0  0  0  0
 24 45  1  0  0  0  0
 24 46  1  0  0  0  0
 24 47  1  0  0  0  0
M  END
> <PUBCHEM_COMPOUND_CID>
45783782

> <PUBCHEM_CONFORMER_RMSD>
0.8

> <PUBCHEM_CONFORMER_DIVERSEORDER>
1
7
30
35
10
19
9
5
6
11
29
18
24
32
8
20
36
14
37
13
26
33
2
12
17
16
27
25
21
34
31
3
15
22
4
23
28

> <PUBCHEM_MMFF94_PARTIAL_CHARGES>
24
1 -0.56
10 0.27
15 0.28
16 0.28
17 0.3
18 0.46
19 0.05
2 -0.02
20 -0.15
21 0.16
22 -0.15
23 0.41
24 0.37
3 -0.81
4 -0.57
41 0.15
42 0.15
43 0.15
44 0.4
5 -0.41
6 -0.62
7 -0.87
8 0.27
9 0.45

> <PUBCHEM_EFFECTIVE_ROTOR_COUNT>
6.2

> <PUBCHEM_PHARMACOPHORE_FEATURES>
9
1 1 acceptor
1 3 cation
1 7 donor
3 4 5 18 cation
3 6 7 23 cation
5 2 4 5 17 18 rings
5 3 9 10 11 12 rings
6 1 8 13 14 15 16 rings
6 6 19 20 21 22 23 rings

> <PUBCHEM_HEAVY_ATOM_COUNT>
24

> <PUBCHEM_ATOM_DEF_STEREO_COUNT>
1

> <PUBCHEM_ATOM_UDEF_STEREO_COUNT>
0

> <PUBCHEM_BOND_DEF_STEREO_COUNT>
0

> <PUBCHEM_BOND_UDEF_STEREO_COUNT>
0

> <PUBCHEM_ISOTOPIC_ATOM_COUNT>
0

> <PUBCHEM_COMPONENT_COUNT>
1

> <PUBCHEM_CACTVS_TAUTO_COUNT>
8

> <PUBCHEM_CONFORMER_ID>
02BA9AE600000001

> <PUBCHEM_MMFF94_ENERGY>
52.4178

> <PUBCHEM_FEATURE_SELFOVERLAP>
45.672

> <PUBCHEM_SHAPE_FINGERPRINT>
10087517 78 18408322216057334100
10291535 26 18336835285084614555
10871710 139 18335137571050440781
10906281 52 17386019381958564510
10937287 8 17767976333286501025
11049842 53 17912630324761914979
11089746 13 18188206611374364612
11315181 36 18041561468396260046
11370993 144 12468621829616700380
11477941 20 18058721554323397076
11640471 11 18188769419140002603
12107183 9 18047181952546706090
12788726 201 18337661001887018875
13583140 156 17489298690355638750
13994607 96 18187941568499410593
14142880 1 18113621162541483037
14251764 38 18266741466644954424
14251764 75 17908713825916087089
14713325 29 18272662263571666623
14739800 52 18266999791947887504
14767858 380 18268407085601640861
15003188 33 18200597982306491406
15064981 113 18057872559731944966
15163728 17 18269845232891816687
15183329 4 17821443570059219598
15463212 79 18336824204480557883
16994733 274 15792828102684385735
17492 54 18266158571300799477
17818456 19 18053370016630047346
19489759 90 18339924913370711454
20511986 3 18041829628199626948
20775438 99 16322849129446531743
21033650 10 18267328507116483100
21756936 100 18187373129081886891
22393880 68 17988372481459770454
22620623 9 17774991415271711815
23402539 116 18335983159927032278
235170 7 17418379116384580852
23522609 53 11023273229699369098
23557571 272 18131351937957642295
25147074 1 18188195525557573218
255183 451 17481408797232440799
2838139 119 18334579079478872436
312425 83 18270699614009529606
3268164 11 18272931656546508111
341906 21 18341322336735977488
38570 142 17970364632590395018
397830 11 11242260705781750590
4169191 19 17386575812167819420
441001 317 18411139160425627856
46194498 28 17345461764378194216
469060 322 18043273356318915953
474 4 17894911767835810595
5104073 3 16733548364224651984
5283173 99 18343021116745401784
531348 171 18272656718921940086
6299153 45 18115582631350968394
6327066 14 18264203613403408773
6328613 192 17749681804852760724
633830 44 17967818197920347898
7288768 16 17458918050034391761
7808743 9 18339360768973588641

> <PUBCHEM_SHAPE_MULTIPOLES>
457.27
13.01
3.24
1.46
22.59
1.32
0.12
6.07
-4.4
-6.64
0.12
-0.02
-0.35
-1.72

> <PUBCHEM_SHAPE_SELFOVERLAP>
979.224

> <PUBCHEM_SHAPE_VOLUME>
253.8

> <PUBCHEM_COORDINATE_TYPE>
2
5
10

$$$$
