25314763
  -OEChem-12032416193D

 51 53  0     1  0  0  0  0  0999 V2000
    3.2265    1.1369   -1.7857 O   0  0  0  0  0  0  0  0  0  0  0  0
    4.9694    1.6194   -0.3330 O   0  0  0  0  0  0  0  0  0  0  0  0
    3.4011    1.1065    2.0288 O   0  0  0  0  0  0  0  0  0  0  0  0
    1.7790   -4.7179    0.6863 O   0  0  0  0  0  0  0  0  0  0  0  0
   -0.5983    1.7234    1.5167 O   0  0  0  0  0  0  0  0  0  0  0  0
   -6.0998   -0.5627   -1.4148 O   0  0  0  0  0  0  0  0  0  0  0  0
    2.8616   -1.4210   -0.5326 N   0  0  0  0  0  0  0  0  0  0  0  0
    0.6688    1.1953   -0.3428 N   0  0  0  0  0  0  0  0  0  0  0  0
   -1.5781    0.7446   -0.3786 N   0  0  0  0  0  0  0  0  0  0  0  0
    1.9351    1.6592    0.1823 C   0  0  2  0  0  0  0  0  0  0  0  0
    3.5923   -0.3211    0.1001 C   0  0  2  0  0  0  0  0  0  0  0  0
    2.7988    2.2267   -0.9629 C   0  0  1  0  0  0  0  0  0  0  0  0
    2.6330    0.5262    0.9663 C   0  0  1  0  0  0  0  0  0  0  0  0
    4.2582    0.5512   -0.9799 C   0  0  1  0  0  0  0  0  0  0  0  0
    4.1397    2.7771   -0.5147 C   0  0  0  0  0  0  0  0  0  0  0  0
    2.6597   -2.5116    0.4076 C   0  0  0  0  0  0  0  0  0  0  0  0
   -0.5252    1.2643    0.3794 C   0  0  0  0  0  0  0  0  0  0  0  0
    1.9394   -3.6711   -0.2619 C   0  0  0  0  0  0  0  0  0  0  0  0
   -2.9396    0.6334   -0.0118 C   0  0  0  0  0  0  0  0  0  0  0  0
    1.0908   -5.8280    0.1261 C   0  0  0  0  0  0  0  0  0  0  0  0
   -3.8592    0.0835   -0.9048 C   0  0  0  0  0  0  0  0  0  0  0  0
   -3.3630    1.0744    1.2422 C   0  0  0  0  0  0  0  0  0  0  0  0
   -5.2021   -0.0255   -0.5442 C   0  0  0  0  0  0  0  0  0  0  0  0
   -4.7060    0.9655    1.6027 C   0  0  0  0  0  0  0  0  0  0  0  0
   -5.6257    0.4156    0.7096 C   0  0  0  0  0  0  0  0  0  0  0  0
   -7.4565   -0.6444   -0.9804 C   0  0  0  0  0  0  0  0  0  0  0  0
    1.7145    2.4871    0.8684 H   0  0  0  0  0  0  0  0  0  0  0  0
    4.4025   -0.7114    0.7318 H   0  0  0  0  0  0  0  0  0  0  0  0
    2.2356    2.9516   -1.5597 H   0  0  0  0  0  0  0  0  0  0  0  0
    1.8891   -0.0959    1.4741 H   0  0  0  0  0  0  0  0  0  0  0  0
    4.9477   -0.0196   -1.6103 H   0  0  0  0  0  0  0  0  0  0  0  0
    4.5995    3.3798   -1.3052 H   0  0  0  0  0  0  0  0  0  0  0  0
    4.0961    3.3689    0.4035 H   0  0  0  0  0  0  0  0  0  0  0  0
    3.3918   -1.7695   -1.3314 H   0  0  0  0  0  0  0  0  0  0  0  0
    0.6634    0.7303   -1.2455 H   0  0  0  0  0  0  0  0  0  0  0  0
    2.7853    1.5878    2.6075 H   0  0  0  0  0  0  0  0  0  0  0  0
    2.0725   -2.2033    1.2794 H   0  0  0  0  0  0  0  0  0  0  0  0
    3.6197   -2.8756    0.7961 H   0  0  0  0  0  0  0  0  0  0  0  0
    2.5213   -4.0411   -1.1150 H   0  0  0  0  0  0  0  0  0  0  0  0
    0.9543   -3.3480   -0.6206 H   0  0  0  0  0  0  0  0  0  0  0  0
   -1.3464    0.4034   -1.3081 H   0  0  0  0  0  0  0  0  0  0  0  0
    0.9988   -6.5996    0.8951 H   0  0  0  0  0  0  0  0  0  0  0  0
    1.6518   -6.2413   -0.7177 H   0  0  0  0  0  0  0  0  0  0  0  0
    0.0869   -5.5345   -0.1956 H   0  0  0  0  0  0  0  0  0  0  0  0
   -3.5364   -0.2624   -1.8840 H   0  0  0  0  0  0  0  0  0  0  0  0
   -2.7119    1.5105    1.9865 H   0  0  0  0  0  0  0  0  0  0  0  0
   -5.0360    1.3088    2.5791 H   0  0  0  0  0  0  0  0  0  0  0  0
   -6.6526    0.3611    1.0544 H   0  0  0  0  0  0  0  0  0  0  0  0
   -8.0303   -1.0961   -1.7962 H   0  0  0  0  0  0  0  0  0  0  0  0
   -7.8824    0.3488   -0.8020 H   0  0  0  0  0  0  0  0  0  0  0  0
   -7.5621   -1.3037   -0.1122 H   0  0  0  0  0  0  0  0  0  0  0  0
  1 12  1  0  0  0  0
  1 14  1  0  0  0  0
  2 14  1  0  0  0  0
  2 15  1  0  0  0  0
  3 13  1  0  0  0  0
  3 36  1  0  0  0  0
  4 18  1  0  0  0  0
  4 20  1  0  0  0  0
  5 17  2  0  0  0  0
  6 23  1  0  0  0  0
  6 26  1  0  0  0  0
  7 11  1  0  0  0  0
  7 16  1  0  0  0  0
  7 34  1  0  0  0  0
  8 10  1  0  0  0  0
  8 17  1  0  0  0  0
  8 35  1  0  0  0  0
  9 17  1  0  0  0  0
  9 19  1  0  0  0  0
  9 41  1  0  0  0  0
 10 12  1  0  0  0  0
 10 13  1  0  0  0  0
 10 27  1  0  0  0  0
 11 13  1  0  0  0  0
 11 14  1  0  0  0  0
 11 28  1  0  0  0  0
 12 15  1  0  0  0  0
 12 29  1  0  0  0  0
 13 30  1  0  0  0  0
 14 31  1  0  0  0  0
 15 32  1  0  0  0  0
 15 33  1  0  0  0  0
 16 18  1  0  0  0  0
 16 37  1  0  0  0  0
 16 38  1  0  0  0  0
 18 39  1  0  0  0  0
 18 40  1  0  0  0  0
 19 21  2  0  0  0  0
 19 22  1  0  0  0  0
 20 42  1  0  0  0  0
 20 43  1  0  0  0  0
 20 44  1  0  0  0  0
 21 23  1  0  0  0  0
 21 45  1  0  0  0  0
 22 24  2  0  0  0  0
 22 46  1  0  0  0  0
 23 25  2  0  0  0  0
 24 25  1  0  0  0  0
 24 47  1  0  0  0  0
 25 48  1  0  0  0  0
 26 49  1  0  0  0  0
 26 50  1  0  0  0  0
 26 51  1  0  0  0  0
M  END
> <PUBCHEM_COMPOUND_CID>
25314763

> <PUBCHEM_CONFORMER_RMSD>
1

> <PUBCHEM_CONFORMER_DIVERSEORDER>
1
39
19
45
52
42
23
48
56
54
57
2
51
33
36
14
20
35
11
30
8
26
44
12
32
21
37
22
17
13
40
31
47
16
7
41
43
53
50
5
9
46
49
24
27
38
29
55
28
10
34
6
4
3
15
25
18

> <PUBCHEM_MMFF94_PARTIAL_CHARGES>
34
1 -0.56
10 0.3
11 0.27
12 0.28
13 0.28
14 0.56
15 0.28
16 0.27
17 0.69
18 0.28
19 0.12
2 -0.56
20 0.28
21 -0.15
22 -0.15
23 0.08
24 -0.15
25 -0.15
26 0.28
3 -0.68
34 0.36
35 0.37
36 0.4
4 -0.56
41 0.37
45 0.15
46 0.15
47 0.15
48 0.15
5 -0.57
6 -0.36
7 -0.9
8 -0.73
9 -0.55

> <PUBCHEM_EFFECTIVE_ROTOR_COUNT>
10.2

> <PUBCHEM_PHARMACOPHORE_FEATURES>
13
1 1 acceptor
1 2 acceptor
1 3 acceptor
1 3 donor
1 4 acceptor
1 5 acceptor
1 6 acceptor
1 7 cation
1 7 donor
1 8 donor
1 9 donor
6 19 21 22 23 24 25 rings
8 1 2 10 11 12 13 14 15 rings

> <PUBCHEM_HEAVY_ATOM_COUNT>
26

> <PUBCHEM_ATOM_DEF_STEREO_COUNT>
5

> <PUBCHEM_ATOM_UDEF_STEREO_COUNT>
0

> <PUBCHEM_BOND_DEF_STEREO_COUNT>
0

> <PUBCHEM_BOND_UDEF_STEREO_COUNT>
0

> <PUBCHEM_ISOTOPIC_ATOM_COUNT>
0

> <PUBCHEM_COMPONENT_COUNT>
1

> <PUBCHEM_CACTVS_TAUTO_COUNT>
3

> <PUBCHEM_CONFORMER_ID>
018245CB00000001

> <PUBCHEM_MMFF94_ENERGY>
77.312

> <PUBCHEM_FEATURE_SELFOVERLAP>
66.076

> <PUBCHEM_SHAPE_FINGERPRINT>
10693767 8 18128550271489602006
11069576 57 18340482253564484327
11719270 70 18408877443590433130
12107183 9 17621612613956515841
12236239 1 18060145344513880909
12596602 18 17275105037503154977
13150687 139 18116453582210578676
13533116 47 18343580725219301075
1361 2 18409167731576368879
13836976 161 18260833726270122532
14675020 138 18270100418478879194
14863182 85 18410568466878150874
15183329 4 18410005534405896261
15250474 111 18343015571895208127
15348495 7 11383826100401788189
15419008 42 17753020866609215423
15537594 2 18131071567304348783
16993438 75 17900545880339934579
17134984 74 18339915039388838079
17138139 8 17844229947052769367
17818456 19 17555463825239042137
18681886 176 16271929345682761184
19319366 153 18341607144233010254
19427546 62 18192713564796628692
20028762 73 18271526395499586342
20511986 3 17989479719469921845
20645477 70 18187359913409572308
20775530 9 17758685446925287090
21054139 6 18271804674318307124
21285901 2 17530958060392073741
21315763 178 18272653428770970297
21360442 67 18335698403685608207
21421861 104 17984723124545651361
220451 1 18130794464910612113
22224240 67 18342730858745284760
239999 70 17458634418984435672
3060560 45 18261119599520314532
345986 75 17773873100108114427
34797466 226 16588037831099139781
59682541 52 18264469730030106821
7164475 11 18337391517725970265

> <PUBCHEM_SHAPE_MULTIPOLES>
484.91
14.21
4.81
1.4
25.38
11.98
0.24
-2.95
-3.46
-7.5
0.45
0.51
-0.54
-1.72

> <PUBCHEM_SHAPE_SELFOVERLAP>
1013.125

> <PUBCHEM_SHAPE_VOLUME>
272

> <PUBCHEM_COORDINATE_TYPE>
2
5
10

$$$$
