7164740
  -OEChem-12032416113D

 64 68  0     1  0  0  0  0  0999 V2000
   -0.7174    2.5262    1.9168 O   0  0  0  0  0  0  0  0  0  0  0  0
   -3.7750   -1.7098    1.8550 O   0  0  0  0  0  0  0  0  0  0  0  0
    2.0357    0.9500   -1.7458 O   0  0  0  0  0  0  0  0  0  0  0  0
    4.5749    1.3448   -0.9494 O   0  0  0  0  0  0  0  0  0  0  0  0
    1.4421   -5.0545   -0.1820 O   0  0  0  0  0  0  0  0  0  0  0  0
   -4.5724   -0.2208    0.2737 N   0  0  0  0  0  0  0  0  0  0  0  0
   -2.4798    2.1832    0.4214 N   0  0  0  0  0  0  0  0  0  0  0  0
   -3.2500   -2.0643   -0.3752 N   0  0  0  0  0  0  0  0  0  0  0  0
    1.1911    2.3062   -0.0476 N   0  0  0  0  0  0  0  0  0  0  0  0
   -4.9273    2.0882    1.1635 C   0  0  1  0  0  0  0  0  0  0  0  0
   -4.3592    1.7708   -1.2062 C   0  0  2  0  0  0  0  0  0  0  0  0
   -5.2308    2.5769   -0.2472 C   0  0  0  0  0  0  0  0  0  0  0  0
   -5.2484    0.5896    1.2911 C   0  0  0  0  0  0  0  0  0  0  0  0
   -3.4619    2.3946    1.4931 C   0  0  0  0  0  0  0  0  0  0  0  0
   -4.7188    0.2731   -1.1077 C   0  0  0  0  0  0  0  0  0  0  0  0
   -2.8852    1.9628   -0.8987 C   0  0  0  0  0  0  0  0  0  0  0  0
   -1.9726    1.8880   -1.8821 C   0  0  0  0  0  0  0  0  0  0  0  0
   -1.1211    2.3157    0.7723 C   0  0  0  0  0  0  0  0  0  0  0  0
   -3.8471   -1.3651    0.6726 C   0  0  0  0  0  0  0  0  0  0  0  0
   -0.1348    2.1999   -0.3483 C   0  0  0  0  0  0  0  0  0  0  0  0
   -0.5705    2.0079   -1.5979 C   0  0  0  0  0  0  0  0  0  0  0  0
   -2.0569   -2.8265   -0.3258 C   0  0  0  0  0  0  0  0  0  0  0  0
    2.1966    1.6740   -0.7663 C   0  0  0  0  0  0  0  0  0  0  0  0
   -1.3465   -2.9331    0.8699 C   0  0  0  0  0  0  0  0  0  0  0  0
   -1.5917   -3.4692   -1.4731 C   0  0  0  0  0  0  0  0  0  0  0  0
    3.5652    1.9804   -0.1947 C   0  0  0  0  0  0  0  0  0  0  0  0
   -0.1711   -3.6825    0.9184 C   0  0  0  0  0  0  0  0  0  0  0  0
   -0.4162   -4.2186   -1.4247 C   0  0  0  0  0  0  0  0  0  0  0  0
    0.2940   -4.3252   -0.2288 C   0  0  0  0  0  0  0  0  0  0  0  0
    5.7319    1.0045   -0.2892 C   0  0  0  0  0  0  0  0  0  0  0  0
    2.1182   -5.1217    1.0727 C   0  0  0  0  0  0  0  0  0  0  0  0
    6.1661    1.7669    0.7952 C   0  0  0  0  0  0  0  0  0  0  0  0
    6.4719   -0.1026   -0.7040 C   0  0  0  0  0  0  0  0  0  0  0  0
    7.3405    1.4223    1.4645 C   0  0  0  0  0  0  0  0  0  0  0  0
    7.6461   -0.4474   -0.0348 C   0  0  0  0  0  0  0  0  0  0  0  0
    8.0804    0.3152    1.0495 C   0  0  0  0  0  0  0  0  0  0  0  0
   -5.5603    2.6242    1.8815 H   0  0  0  0  0  0  0  0  0  0  0  0
   -4.5711    2.1105   -2.2285 H   0  0  0  0  0  0  0  0  0  0  0  0
   -6.2927    2.4352   -0.4822 H   0  0  0  0  0  0  0  0  0  0  0  0
   -5.0214    3.6502   -0.3381 H   0  0  0  0  0  0  0  0  0  0  0  0
   -6.3248    0.4293    1.1523 H   0  0  0  0  0  0  0  0  0  0  0  0
   -5.0031    0.2394    2.2990 H   0  0  0  0  0  0  0  0  0  0  0  0
   -3.3780    3.4559    1.7645 H   0  0  0  0  0  0  0  0  0  0  0  0
   -3.1408    1.8313    2.3784 H   0  0  0  0  0  0  0  0  0  0  0  0
   -5.7675    0.1179   -1.3891 H   0  0  0  0  0  0  0  0  0  0  0  0
   -4.1099   -0.2865   -1.8194 H   0  0  0  0  0  0  0  0  0  0  0  0
   -2.2616    1.7087   -2.9125 H   0  0  0  0  0  0  0  0  0  0  0  0
    0.0775    1.9684   -2.4653 H   0  0  0  0  0  0  0  0  0  0  0  0
   -3.6901   -2.0289   -1.2884 H   0  0  0  0  0  0  0  0  0  0  0  0
    1.4243    2.6853    0.8670 H   0  0  0  0  0  0  0  0  0  0  0  0
   -1.6403   -2.4344    1.7852 H   0  0  0  0  0  0  0  0  0  0  0  0
   -2.1352   -3.3934   -2.4114 H   0  0  0  0  0  0  0  0  0  0  0  0
    3.7167    3.0658   -0.2207 H   0  0  0  0  0  0  0  0  0  0  0  0
    3.5500    1.6282    0.8455 H   0  0  0  0  0  0  0  0  0  0  0  0
    0.3352   -3.7183    1.8771 H   0  0  0  0  0  0  0  0  0  0  0  0
   -0.0583   -4.7165   -2.3217 H   0  0  0  0  0  0  0  0  0  0  0  0
    3.0076   -5.7436    0.9275 H   0  0  0  0  0  0  0  0  0  0  0  0
    1.5047   -5.6144    1.8347 H   0  0  0  0  0  0  0  0  0  0  0  0
    2.4674   -4.1348    1.3947 H   0  0  0  0  0  0  0  0  0  0  0  0
    5.6326    2.6505    1.1327 H   0  0  0  0  0  0  0  0  0  0  0  0
    6.1382   -0.7002   -1.5480 H   0  0  0  0  0  0  0  0  0  0  0  0
    7.6823    2.0192    2.3051 H   0  0  0  0  0  0  0  0  0  0  0  0
    8.2224   -1.3093   -0.3581 H   0  0  0  0  0  0  0  0  0  0  0  0
    8.9955    0.0477    1.5696 H   0  0  0  0  0  0  0  0  0  0  0  0
  1 18  2  0  0  0  0
  2 19  2  0  0  0  0
  3 23  2  0  0  0  0
  4 26  1  0  0  0  0
  4 30  1  0  0  0  0
  5 29  1  0  0  0  0
  5 31  1  0  0  0  0
  6 13  1  0  0  0  0
  6 15  1  0  0  0  0
  6 19  1  0  0  0  0
  7 14  1  0  0  0  0
  7 16  1  0  0  0  0
  7 18  1  0  0  0  0
  8 19  1  0  0  0  0
  8 22  1  0  0  0  0
  8 49  1  0  0  0  0
  9 20  1  0  0  0  0
  9 23  1  0  0  0  0
  9 50  1  0  0  0  0
 10 12  1  0  0  0  0
 10 13  1  0  0  0  0
 10 14  1  0  0  0  0
 10 37  1  0  0  0  0
 11 12  1  0  0  0  0
 11 15  1  0  0  0  0
 11 16  1  0  0  0  0
 11 38  1  0  0  0  0
 12 39  1  0  0  0  0
 12 40  1  0  0  0  0
 13 41  1  0  0  0  0
 13 42  1  0  0  0  0
 14 43  1  0  0  0  0
 14 44  1  0  0  0  0
 15 45  1  0  0  0  0
 15 46  1  0  0  0  0
 16 17  2  0  0  0  0
 17 21  1  0  0  0  0
 17 47  1  0  0  0  0
 18 20  1  0  0  0  0
 20 21  2  0  0  0  0
 21 48  1  0  0  0  0
 22 24  2  0  0  0  0
 22 25  1  0  0  0  0
 23 26  1  0  0  0  0
 24 27  1  0  0  0  0
 24 51  1  0  0  0  0
 25 28  2  0  0  0  0
 25 52  1  0  0  0  0
 26 53  1  0  0  0  0
 26 54  1  0  0  0  0
 27 29  2  0  0  0  0
 27 55  1  0  0  0  0
 28 29  1  0  0  0  0
 28 56  1  0  0  0  0
 30 32  2  0  0  0  0
 30 33  1  0  0  0  0
 31 57  1  0  0  0  0
 31 58  1  0  0  0  0
 31 59  1  0  0  0  0
 32 34  1  0  0  0  0
 32 60  1  0  0  0  0
 33 35  2  0  0  0  0
 33 61  1  0  0  0  0
 34 36  2  0  0  0  0
 34 62  1  0  0  0  0
 35 36  1  0  0  0  0
 35 63  1  0  0  0  0
 36 64  1  0  0  0  0
M  END
> <PUBCHEM_COMPOUND_CID>
7164740

> <PUBCHEM_CONFORMER_RMSD>
1

> <PUBCHEM_CONFORMER_DIVERSEORDER>
1
90
12
103
33
111
57
25
21
96
105
76
107
64
81
50
35
110
99
92
55
44
66
87
91
109
97
17
51
93
72
27
78
68
43
38
75
112
62
42
41
79
73
58
108
9
40
23
70
69
74
56
98
19
32
16
100
18
88
31
71
86
26
54
89
47
45
85
102
106
101
2
46
83
80
60
94
20
65
95
67
49
84
15
28
39
63
4
104
61
59
29
77
6
52
11
34
48
3
82
7
22
13
24
8
10
5
53
36
14
30
37

> <PUBCHEM_MMFF94_PARTIAL_CHARGES>
47
1 -0.57
11 0.14
13 0.3
14 0.3
15 0.3
16 -0.03
17 -0.15
18 0.62
19 0.69
2 -0.57
20 0.12
21 -0.15
22 0.12
23 0.57
24 -0.15
25 -0.15
26 0.34
27 -0.15
28 -0.15
29 0.08
3 -0.57
30 0.08
31 0.28
32 -0.15
33 -0.15
34 -0.15
35 -0.15
36 -0.15
4 -0.36
47 0.15
48 0.15
49 0.37
5 -0.36
50 0.37
51 0.15
52 0.15
55 0.15
56 0.15
6 -0.66
60 0.15
61 0.15
62 0.15
63 0.15
64 0.15
7 -0.47
8 -0.55
9 -0.54

> <PUBCHEM_EFFECTIVE_ROTOR_COUNT>
10

> <PUBCHEM_PHARMACOPHORE_FEATURES>
12
1 1 acceptor
1 2 acceptor
1 3 acceptor
1 4 acceptor
1 5 acceptor
1 8 donor
1 9 donor
6 22 24 25 27 28 29 rings
6 30 32 33 34 35 36 rings
6 6 10 11 12 13 15 rings
6 7 10 11 12 14 16 rings
6 7 16 17 18 20 21 rings

> <PUBCHEM_HEAVY_ATOM_COUNT>
36

> <PUBCHEM_ATOM_DEF_STEREO_COUNT>
2

> <PUBCHEM_ATOM_UDEF_STEREO_COUNT>
0

> <PUBCHEM_BOND_DEF_STEREO_COUNT>
0

> <PUBCHEM_BOND_UDEF_STEREO_COUNT>
0

> <PUBCHEM_ISOTOPIC_ATOM_COUNT>
0

> <PUBCHEM_COMPONENT_COUNT>
1

> <PUBCHEM_CACTVS_TAUTO_COUNT>
4

> <PUBCHEM_CONFORMER_ID>
006D534400000001

> <PUBCHEM_MMFF94_ENERGY>
121.9493

> <PUBCHEM_FEATURE_SELFOVERLAP>
62.475

> <PUBCHEM_SHAPE_FINGERPRINT>
11135926 11 18337106766163440413
11524674 6 18412825780691528221
11763389 116 18410855443687589678
12712778 12 18340206422464476468
14659021 117 17835791272507703384
14725015 67 18124877013399270647
14866123 147 18338796839614688567
15021287 119 17240764021066825748
15183329 4 13479131290066149464
15274700 242 17241303843000569008
15297060 5 18343864407170769330
15320294 125 18114461253448959518
15439362 3 18046622309908318309
16112460 7 18340207371953007282
16719943 64 18409451427014456134
17627616 140 18337104566702503699
19311894 1 17974283528530121978
19611394 137 18058164111520421192
19958102 18 18335977645036108372
20771845 165 17680701520116971029
20775530 9 17187865644696643431
229767 44 18335703892421327054
23516275 137 18117581538857740314
3383291 50 18342176725774321887
373842 8 18263922129942323322
4073 2 18272363218669692456
5080951 261 18116127018181981356
5085150 59 18411135840284032970
5265222 85 18263657306279486893

> <PUBCHEM_SHAPE_MULTIPOLES>
691.59
16.72
6.54
1.68
37.37
11.68
-0.01
-10.87
-4.46
-1.48
-0.15
-0.8
-0.28
-0.08

> <PUBCHEM_SHAPE_SELFOVERLAP>
1503.883

> <PUBCHEM_SHAPE_VOLUME>
368.4

> <PUBCHEM_COORDINATE_TYPE>
2
5
10

$$$$
