40780142
  -OEChem-12032416163D

 67 71  0     1  0  0  0  0  0999 V2000
   -1.1826    0.7969   -1.2470 O   0  0  0  0  0  0  0  0  0  0  0  0
   -7.3222   -0.6449    0.3644 O   0  0  0  0  0  0  0  0  0  0  0  0
    3.2958    2.9900   -0.5986 N   0  0  2  0  0  0  0  0  0  0  0  0
    4.3178   -1.6546   -0.4038 N   0  0  0  0  0  0  0  0  0  0  0  0
   -0.4620    2.9169   -0.6655 N   0  0  0  0  0  0  0  0  0  0  0  0
    3.7750   -2.8742   -0.5593 N   0  0  0  0  0  0  0  0  0  0  0  0
   -2.6213    2.2898   -0.1462 N   0  0  0  0  0  0  0  0  0  0  0  0
    3.1406    1.4769    1.5155 C   0  0  2  0  0  0  0  0  0  0  0  0
    3.8469    0.7208    0.3563 C   0  0  2  0  0  0  0  0  0  0  0  0
    1.9039    2.9879   -0.0762 C   0  0  2  0  0  0  0  0  0  0  0  0
    1.7451    1.9402    1.0467 C   0  0  0  0  0  0  0  0  0  0  0  0
    3.7212    1.6042   -0.9177 C   0  0  0  0  0  0  0  0  0  0  0  0
    3.9722    2.7482    1.7898 C   0  0  0  0  0  0  0  0  0  0  0  0
    4.1814    3.5113    0.4700 C   0  0  0  0  0  0  0  0  0  0  0  0
    3.4529   -0.7262    0.0968 C   0  0  0  0  0  0  0  0  0  0  0  0
    0.8658    2.7980   -1.1842 C   0  0  0  0  0  0  0  0  0  0  0  0
    2.2614   -1.3841    0.2812 C   0  0  0  0  0  0  0  0  0  0  0  0
    1.5561   -3.8691   -0.1542 C   0  0  0  0  0  0  0  0  0  0  0  0
    2.5188   -2.7027   -0.1391 C   0  0  0  0  0  0  0  0  0  0  0  0
    1.0263   -4.2145    1.2490 C   0  0  0  0  0  0  0  0  0  0  0  0
    0.3052   -3.6545   -1.0313 C   0  0  0  0  0  0  0  0  0  0  0  0
   -0.4125   -4.6527    1.0220 C   0  0  0  0  0  0  0  0  0  0  0  0
   -0.8844   -3.7212   -0.0804 C   0  0  0  0  0  0  0  0  0  0  0  0
    5.7009   -1.4470   -0.7651 C   0  0  0  0  0  0  0  0  0  0  0  0
   -1.4181    1.8876   -0.7325 C   0  0  0  0  0  0  0  0  0  0  0  0
   -3.8159    1.5436   -0.0165 C   0  0  0  0  0  0  0  0  0  0  0  0
   -4.9292    2.1122    0.6023 C   0  0  0  0  0  0  0  0  0  0  0  0
   -3.8809    0.2396   -0.5075 C   0  0  0  0  0  0  0  0  0  0  0  0
   -6.1075    1.3768    0.7304 C   0  0  0  0  0  0  0  0  0  0  0  0
   -5.0591   -0.4960   -0.3793 C   0  0  0  0  0  0  0  0  0  0  0  0
   -6.1724    0.0726    0.2396 C   0  0  0  0  0  0  0  0  0  0  0  0
   -7.3192   -1.9721   -0.1596 C   0  0  0  0  0  0  0  0  0  0  0  0
    3.0646    0.8567    2.4148 H   0  0  0  0  0  0  0  0  0  0  0  0
    4.9116    0.6954    0.6332 H   0  0  0  0  0  0  0  0  0  0  0  0
    1.7079    3.9802    0.3573 H   0  0  0  0  0  0  0  0  0  0  0  0
    1.1399    1.0939    0.7206 H   0  0  0  0  0  0  0  0  0  0  0  0
    1.2133    2.3966    1.8914 H   0  0  0  0  0  0  0  0  0  0  0  0
    4.6948    1.6438   -1.4238 H   0  0  0  0  0  0  0  0  0  0  0  0
    3.0448    1.1558   -1.6544 H   0  0  0  0  0  0  0  0  0  0  0  0
    4.9430    2.4848    2.2255 H   0  0  0  0  0  0  0  0  0  0  0  0
    3.4524    3.3840    2.5167 H   0  0  0  0  0  0  0  0  0  0  0  0
    3.9930    4.5809    0.6243 H   0  0  0  0  0  0  0  0  0  0  0  0
    5.2293    3.4407    0.1518 H   0  0  0  0  0  0  0  0  0  0  0  0
    0.9791    1.8346   -1.6898 H   0  0  0  0  0  0  0  0  0  0  0  0
    0.9798    3.5812   -1.9422 H   0  0  0  0  0  0  0  0  0  0  0  0
    1.3335   -0.9951    0.6694 H   0  0  0  0  0  0  0  0  0  0  0  0
    2.0878   -4.7477   -0.5466 H   0  0  0  0  0  0  0  0  0  0  0  0
   -0.7429    3.8080   -0.2680 H   0  0  0  0  0  0  0  0  0  0  0  0
    1.0422   -3.3464    1.9191 H   0  0  0  0  0  0  0  0  0  0  0  0
    1.6200   -5.0022    1.7248 H   0  0  0  0  0  0  0  0  0  0  0  0
    0.2321   -4.4714   -1.7602 H   0  0  0  0  0  0  0  0  0  0  0  0
    0.3154   -2.7164   -1.5961 H   0  0  0  0  0  0  0  0  0  0  0  0
   -1.0200   -4.5686    1.9275 H   0  0  0  0  0  0  0  0  0  0  0  0
   -0.4437   -5.6942    0.6812 H   0  0  0  0  0  0  0  0  0  0  0  0
   -1.7905   -4.0834   -0.5746 H   0  0  0  0  0  0  0  0  0  0  0  0
   -1.0933   -2.7256    0.3289 H   0  0  0  0  0  0  0  0  0  0  0  0
    6.2668   -1.2302    0.1441 H   0  0  0  0  0  0  0  0  0  0  0  0
    6.0936   -2.3523   -1.2362 H   0  0  0  0  0  0  0  0  0  0  0  0
    5.7600   -0.6161   -1.4714 H   0  0  0  0  0  0  0  0  0  0  0  0
   -2.6495    3.2316    0.2364 H   0  0  0  0  0  0  0  0  0  0  0  0
   -4.8920    3.1273    0.9890 H   0  0  0  0  0  0  0  0  0  0  0  0
   -3.0615   -0.2678   -0.9969 H   0  0  0  0  0  0  0  0  0  0  0  0
   -6.9715    1.8249    1.2134 H   0  0  0  0  0  0  0  0  0  0  0  0
   -5.0417   -1.5032   -0.7818 H   0  0  0  0  0  0  0  0  0  0  0  0
   -8.3121   -2.3949    0.0259 H   0  0  0  0  0  0  0  0  0  0  0  0
   -6.5977   -2.6095    0.3630 H   0  0  0  0  0  0  0  0  0  0  0  0
   -7.1677   -1.9761   -1.2443 H   0  0  0  0  0  0  0  0  0  0  0  0
  1 25  2  0  0  0  0
  2 31  1  0  0  0  0
  2 32  1  0  0  0  0
  3 10  1  0  0  0  0
  3 12  1  0  0  0  0
  3 14  1  0  0  0  0
  4  6  1  0  0  0  0
  4 15  1  0  0  0  0
  4 24  1  0  0  0  0
  5 16  1  0  0  0  0
  5 25  1  0  0  0  0
  5 48  1  0  0  0  0
  6 19  2  0  0  0  0
  7 25  1  0  0  0  0
  7 26  1  0  0  0  0
  7 60  1  0  0  0  0
  8  9  1  0  0  0  0
  8 11  1  0  0  0  0
  8 13  1  0  0  0  0
  8 33  1  0  0  0  0
  9 12  1  0  0  0  0
  9 15  1  0  0  0  0
  9 34  1  0  0  0  0
 10 11  1  0  0  0  0
 10 16  1  0  0  0  0
 10 35  1  0  0  0  0
 11 36  1  0  0  0  0
 11 37  1  0  0  0  0
 12 38  1  0  0  0  0
 12 39  1  0  0  0  0
 13 14  1  0  0  0  0
 13 40  1  0  0  0  0
 13 41  1  0  0  0  0
 14 42  1  0  0  0  0
 14 43  1  0  0  0  0
 15 17  2  0  0  0  0
 16 44  1  0  0  0  0
 16 45  1  0  0  0  0
 17 19  1  0  0  0  0
 17 46  1  0  0  0  0
 18 19  1  0  0  0  0
 18 20  1  0  0  0  0
 18 21  1  0  0  0  0
 18 47  1  0  0  0  0
 20 22  1  0  0  0  0
 20 49  1  0  0  0  0
 20 50  1  0  0  0  0
 21 23  1  0  0  0  0
 21 51  1  0  0  0  0
 21 52  1  0  0  0  0
 22 23  1  0  0  0  0
 22 53  1  0  0  0  0
 22 54  1  0  0  0  0
 23 55  1  0  0  0  0
 23 56  1  0  0  0  0
 24 57  1  0  0  0  0
 24 58  1  0  0  0  0
 24 59  1  0  0  0  0
 26 27  2  0  0  0  0
 26 28  1  0  0  0  0
 27 29  1  0  0  0  0
 27 61  1  0  0  0  0
 28 30  2  0  0  0  0
 28 62  1  0  0  0  0
 29 31  2  0  0  0  0
 29 63  1  0  0  0  0
 30 31  1  0  0  0  0
 30 64  1  0  0  0  0
 32 65  1  0  0  0  0
 32 66  1  0  0  0  0
 32 67  1  0  0  0  0
M  END
> <PUBCHEM_COMPOUND_CID>
40780142

> <PUBCHEM_CONFORMER_RMSD>
1

> <PUBCHEM_CONFORMER_DIVERSEORDER>
1
129
131
81
46
56
103
19
35
113
75
31
69
80
38
62
148
28
128
8
157
121
137
141
18
89
151
57
84
42
83
153
49
82
58
61
111
127
107
101
41
40
114
140
60
12
9
159
102
139
34
37
149
11
53
6
36
48
94
155
117
124
100
25
73
95
143
138
26
86
150
77
96
67
68
146
152
142
59
122
105
29
65
3
22
4
154
135
5
54
118
30
134
115
13
17
70
93
52
136
99
78
27
108
97
74
63
110
55
158
23
88
156
10
106
66
14
20
7
45
71
147
92
90
112
76
21
44
125
120
87
64
85
51
109
15
43
123
24
79
130
133
160
33
116
16
47
132
72
126
104
91
2
39
32
98
144
145
119
50

> <PUBCHEM_MMFF94_PARTIAL_CHARGES>
32
1 -0.57
10 0.27
12 0.27
14 0.27
15 -0.33
16 0.3
17 -0.15
18 0.18
19 0.11
2 -0.36
24 0.26
25 0.69
26 0.12
27 -0.15
28 -0.15
29 -0.15
3 -0.81
30 -0.15
31 0.08
32 0.28
4 0.31
46 0.15
48 0.37
5 -0.73
6 -0.71
60 0.37
61 0.15
62 0.15
63 0.15
64 0.15
7 -0.55
9 0.18

> <PUBCHEM_EFFECTIVE_ROTOR_COUNT>
10.2

> <PUBCHEM_PHARMACOPHORE_FEATURES>
10
1 1 acceptor
1 2 acceptor
1 3 cation
1 5 donor
1 6 acceptor
1 7 donor
5 18 20 21 22 23 rings
5 4 6 15 17 19 rings
6 26 27 28 29 30 31 rings
8 3 8 9 10 11 12 13 14 rings

> <PUBCHEM_HEAVY_ATOM_COUNT>
32

> <PUBCHEM_ATOM_DEF_STEREO_COUNT>
3

> <PUBCHEM_ATOM_UDEF_STEREO_COUNT>
0

> <PUBCHEM_BOND_DEF_STEREO_COUNT>
0

> <PUBCHEM_BOND_UDEF_STEREO_COUNT>
0

> <PUBCHEM_ISOTOPIC_ATOM_COUNT>
0

> <PUBCHEM_COMPONENT_COUNT>
1

> <PUBCHEM_CACTVS_TAUTO_COUNT>
3

> <PUBCHEM_CONFORMER_ID>
026E416E00000001

> <PUBCHEM_MMFF94_ENERGY>
83.6097

> <PUBCHEM_FEATURE_SELFOVERLAP>
50.796

> <PUBCHEM_SHAPE_FINGERPRINT>
10316853 100 18408888446975015398
10816530 23 18050848020107649496
11443803 9 17824830177600871204
114674 6 18337668620852267256
11513181 2 18129384971796280230
12107183 9 17910685263423729249
13150687 139 17751384952643706148
13383661 66 17628932136014377158
13402501 40 18335705983590319794
13533116 47 18343302591542959185
13561361 72 18334291015515999107
1361 2 18408604790323418339
13692114 37 18124022696441771856
14040221 137 17908993445043828929
14725015 67 18188761743643373146
14863182 85 18334576862890963884
14904385 31 18265610073010060993
15110567 62 18337393738312784612
15320467 1 18337955580597653943
15419008 42 17752739404644416485
15483637 11 17976540834106505055
15927050 60 18269275845151391670
16112460 7 18341332270499337267
19301679 30 18334582326754048017
1979834 28 18409444825365126185
20028762 73 18341612598815063271
20764821 26 18336540611826747630
20775530 9 17762331414681745958
21133410 38 18129092502246512911
21133410 62 18115292411357243287
21133410 90 17417531448891466522
21197605 99 18340488979910654415
23559900 14 18265327309960230229
3117164 225 17982176613284059313
338550 245 18337390538498839445
354706 109 18336808867537232273
3737641 26 17978796705443087878
373842 8 18264211482015577323
394071 54 18128264376954060859
5309563 4 18122344575393780900
57676310 18 18050846921651387067
5776283 40 18338529616241065518
653340 110 17620746619579147680
86090 222 18333734602375883739

> <PUBCHEM_SHAPE_MULTIPOLES>
621.9
14.76
6.61
1.18
28.34
5.93
0.22
-2.47
1.14
-4.87
0.72
-0.8
-0.26
0.83

> <PUBCHEM_SHAPE_SELFOVERLAP>
1328.811

> <PUBCHEM_SHAPE_VOLUME>
343.9

> <PUBCHEM_COORDINATE_TYPE>
2
5
10

$$$$
