75536906
  -OEChem-12032416333D

 39 41  0     1  0  0  0  0  0999 V2000
    0.6256    3.2105   -0.9847 O   0  0  0  0  0  0  0  0  0  0  0  0
    1.0836   -1.5450    1.0439 O   0  0  0  0  0  0  0  0  0  0  0  0
   -2.2468    1.2931    0.2809 O   0  0  0  0  0  0  0  0  0  0  0  0
    1.3645    0.7285    0.6279 N   0  0  0  0  0  0  0  0  0  0  0  0
   -2.0132   -0.8728   -0.5308 N   0  0  0  0  0  0  0  0  0  0  0  0
   -4.6747   -1.3953    0.1830 N   0  0  0  0  0  0  0  0  0  0  0  0
    3.2328   -0.8795    0.1785 C   0  0  0  0  0  0  0  0  0  0  0  0
    3.9173   -2.1945    0.6358 C   0  0  0  0  0  0  0  0  0  0  0  0
    3.4203   -1.3944   -1.2725 C   0  0  0  0  0  0  0  0  0  0  0  0
    4.5883   -2.2517   -0.7496 C   0  0  0  0  0  0  0  0  0  0  0  0
    1.8023   -0.6126    0.6548 C   0  0  0  0  0  0  0  0  0  0  0  0
   -0.0002    1.0445    1.0553 C   0  0  0  0  0  0  0  0  0  0  0  0
    2.2393    1.8105    0.1616 C   0  0  0  0  0  0  0  0  0  0  0  0
   -0.8873    1.4718   -0.1135 C   0  0  2  0  0  0  0  0  0  0  0  0
    1.6116    3.1927    0.0423 C   0  0  0  0  0  0  0  0  0  0  0  0
   -0.6875    2.9303   -0.5175 C   0  0  0  0  0  0  0  0  0  0  0  0
   -2.7937    0.0619    0.0470 C   0  0  0  0  0  0  0  0  0  0  0  0
   -4.1010   -0.1947    0.3976 C   0  0  0  0  0  0  0  0  0  0  0  0
   -2.5870   -2.0733   -0.7453 C   0  0  0  0  0  0  0  0  0  0  0  0
   -3.8943   -2.3300   -0.3947 C   0  0  0  0  0  0  0  0  0  0  0  0
    3.9167   -0.0499    0.4023 H   0  0  0  0  0  0  0  0  0  0  0  0
    3.2350   -3.0316    0.8229 H   0  0  0  0  0  0  0  0  0  0  0  0
    4.6017   -2.1027    1.4837 H   0  0  0  0  0  0  0  0  0  0  0  0
    3.6904   -0.6372   -2.0132 H   0  0  0  0  0  0  0  0  0  0  0  0
    2.5768   -1.9809   -1.6554 H   0  0  0  0  0  0  0  0  0  0  0  0
    4.6843   -3.2462   -1.1919 H   0  0  0  0  0  0  0  0  0  0  0  0
    5.5595   -1.7455   -0.7906 H   0  0  0  0  0  0  0  0  0  0  0  0
    0.0434    1.8155    1.8337 H   0  0  0  0  0  0  0  0  0  0  0  0
   -0.4308    0.1702    1.5557 H   0  0  0  0  0  0  0  0  0  0  0  0
    3.0770    1.8722    0.8651 H   0  0  0  0  0  0  0  0  0  0  0  0
    2.6328    1.5109   -0.8164 H   0  0  0  0  0  0  0  0  0  0  0  0
   -0.6360    0.8820   -1.0059 H   0  0  0  0  0  0  0  0  0  0  0  0
    1.2147    3.5653    0.9934 H   0  0  0  0  0  0  0  0  0  0  0  0
    2.3932    3.8958   -0.2666 H   0  0  0  0  0  0  0  0  0  0  0  0
   -1.3790    3.1679   -1.3347 H   0  0  0  0  0  0  0  0  0  0  0  0
   -0.9561    3.6132    0.2988 H   0  0  0  0  0  0  0  0  0  0  0  0
   -4.7319    0.5536    0.8622 H   0  0  0  0  0  0  0  0  0  0  0  0
   -1.9600   -2.8247   -1.2090 H   0  0  0  0  0  0  0  0  0  0  0  0
   -4.3544   -3.2950   -0.5673 H   0  0  0  0  0  0  0  0  0  0  0  0
  1 15  1  0  0  0  0
  1 16  1  0  0  0  0
  2 11  2  0  0  0  0
  3 14  1  0  0  0  0
  3 17  1  0  0  0  0
  4 11  1  0  0  0  0
  4 12  1  0  0  0  0
  4 13  1  0  0  0  0
  5 17  2  0  0  0  0
  5 19  1  0  0  0  0
  6 18  2  0  0  0  0
  6 20  1  0  0  0  0
  7  8  1  0  0  0  0
  7  9  1  0  0  0  0
  7 11  1  0  0  0  0
  7 21  1  0  0  0  0
  8 10  1  0  0  0  0
  8 22  1  0  0  0  0
  8 23  1  0  0  0  0
  9 10  1  0  0  0  0
  9 24  1  0  0  0  0
  9 25  1  0  0  0  0
 10 26  1  0  0  0  0
 10 27  1  0  0  0  0
 12 14  1  0  0  0  0
 12 28  1  0  0  0  0
 12 29  1  0  0  0  0
 13 15  1  0  0  0  0
 13 30  1  0  0  0  0
 13 31  1  0  0  0  0
 14 16  1  0  0  0  0
 14 32  1  0  0  0  0
 15 33  1  0  0  0  0
 15 34  1  0  0  0  0
 16 35  1  0  0  0  0
 16 36  1  0  0  0  0
 17 18  1  0  0  0  0
 18 37  1  0  0  0  0
 19 20  2  0  0  0  0
 19 38  1  0  0  0  0
 20 39  1  0  0  0  0
M  END
> <PUBCHEM_COMPOUND_CID>
75536906

> <PUBCHEM_CONFORMER_RMSD>
0.8

> <PUBCHEM_CONFORMER_DIVERSEORDER>
3
103
88
23
91
71
212
7
210
32
229
226
136
170
188
147
159
129
207
31
151
224
30
133
56
106
119
236
111
216
157
242
142
52
74
1
60
120
160
163
235
4
138
186
205
233
217
48
150
164
24
234
46
141
172
40
191
195
209
17
192
219
230
75
2
41
89
182
93
8
213
49
16
51
90
190
239
44
25
118
222
137
59
35
144
92
185
117
199
121
55
12
169
69
10
183
21
47
116
156
175
26
240
63
68
238
214
14
108
72
78
184
124
98
53
43
107
101
39
161
218
198
143
94
166
76
171
203
61
28
70
227
181
66
15
193
126
123
18
105
220
194
187
130
225
104
201
5
200
127
196
22
54
173
81
134
99
102
57
37
125
112
128
29
11
177
58
167
82
50
84
211
162
132
115
221
215
146
174
223
86
202
100
189
113
131
20
79
179
67
65
33
95
62
178
197
114
232
9
6
228
109
176
153
149
122
97
168
42
45
85
241
34
110
206
180
83
208
231
139
38
155
80
13
148
96
87
19
237
154
158
36
135
77
73
145
64
140
152
204
165
27

> <PUBCHEM_MMFF94_PARTIAL_CHARGES>
20
1 -0.56
11 0.58
12 0.3
13 0.3
14 0.28
15 0.28
16 0.28
17 0.39
18 0.16
19 0.16
2 -0.57
20 0.16
3 -0.36
37 0.15
38 0.15
39 0.15
4 -0.66
5 -0.62
6 -0.62
7 0.05

> <PUBCHEM_EFFECTIVE_ROTOR_COUNT>
6.2

> <PUBCHEM_PHARMACOPHORE_FEATURES>
6
1 1 acceptor
1 2 acceptor
1 6 acceptor
4 7 8 9 10 rings
6 5 6 17 18 19 20 rings
7 1 4 12 13 14 15 16 rings

> <PUBCHEM_HEAVY_ATOM_COUNT>
20

> <PUBCHEM_ATOM_DEF_STEREO_COUNT>
1

> <PUBCHEM_ATOM_UDEF_STEREO_COUNT>
0

> <PUBCHEM_BOND_DEF_STEREO_COUNT>
0

> <PUBCHEM_BOND_UDEF_STEREO_COUNT>
0

> <PUBCHEM_ISOTOPIC_ATOM_COUNT>
0

> <PUBCHEM_COMPONENT_COUNT>
1

> <PUBCHEM_CACTVS_TAUTO_COUNT>
1

> <PUBCHEM_CONFORMER_ID>
04809A0A00000003

> <PUBCHEM_MMFF94_ENERGY>
61.0412

> <PUBCHEM_FEATURE_SELFOVERLAP>
30.448

> <PUBCHEM_SHAPE_FINGERPRINT>
10616163 171 17836365221988959879
11578080 2 17677593333503696844
12054548 360 18337390431552028596
12107183 9 18270131123917509473
12403259 327 15697995275510829383
12553582 1 18335975368397765683
12596599 1 18129957679883079698
12841375 25 18409728447830070761
12990986 174 18265606577350085610
13009979 54 18059588996140958787
13533116 47 18127969922655188647
138480 1 18410291458055757844
14790565 3 17474392374515357808
14863182 85 18048878795056361804
15352361 1 18412544292961953198
17492 89 18267585895927952495
17818456 19 18059870441438195633
1813 80 18411428292838508023
19141452 34 18198627640062735761
20291156 8 18410854356411425907
20388580 30 18411139164345899397
20645477 70 18192137408082165391
20671657 53 18409167705484577867
20871999 31 18189898617075423844
21634736 98 18410575123492124354
221490 88 18263649617897214538
23379529 103 18128266592857207414
23557571 272 18128252277946727026
23559900 14 18341323466016918465
23566358 27 18264781024163055437
23598288 3 17536875477053111433
23598291 2 18340217340224039153
314173 41 18410859853938234574
3421961 26 18340205288239585008
352729 6 16821914630977729793
4280585 95 18336253579515699394
5207 123 18341602720959598735
7364860 26 18268992170719246080
9709674 26 18191303978104949875

> <PUBCHEM_SHAPE_MULTIPOLES>
379.04
8.34
3.89
0.99
1.55
2.48
0.05
-8.64
0.65
-1.13
0.88
-0.47
-0.13
-0.07

> <PUBCHEM_SHAPE_SELFOVERLAP>
790.061

> <PUBCHEM_SHAPE_VOLUME>
211

> <PUBCHEM_COORDINATE_TYPE>
2
5
10

$$$$
