51137599
  -OEChem-12032416223D

 49 53  0     1  0  0  0  0  0999 V2000
   10.2743    1.2710    0.2777 F   0  0  0  0  0  0  0  0  0  0  0  0
    2.0878   -0.2313    0.4062 O   0  0  0  0  0  0  0  0  0  0  0  0
   -8.0468   -0.1741   -1.4827 O   0  0  0  0  0  0  0  0  0  0  0  0
   -8.6714    1.5614    0.0683 O   0  0  0  0  0  0  0  0  0  0  0  0
    4.9676    0.0394   -0.4479 O   0  0  0  0  0  0  0  0  0  0  0  0
   -2.6456   -0.2644    0.4305 N   0  0  1  0  0  0  0  0  0  0  0  0
    1.1350   -2.0000   -0.5775 N   0  0  0  0  0  0  0  0  0  0  0  0
    2.4912   -2.2473   -0.4755 N   0  0  0  0  0  0  0  0  0  0  0  0
   -0.3342   -0.0258    0.1147 C   0  0  2  0  0  0  0  0  0  0  0  0
   -1.3767   -0.7521    0.9753 C   0  0  0  0  0  0  0  0  0  0  0  0
   -1.0690    0.2964   -1.1982 C   0  0  0  0  0  0  0  0  0  0  0  0
   -2.4656   -0.2854   -1.0211 C   0  0  0  0  0  0  0  0  0  0  0  0
   -3.7800   -1.0690    0.8599 C   0  0  0  0  0  0  0  0  0  0  0  0
    0.9452   -0.8131   -0.0505 C   0  0  0  0  0  0  0  0  0  0  0  0
   -5.0850   -0.3409    0.6767 C   0  0  0  0  0  0  0  0  0  0  0  0
   -5.9239   -0.6787   -0.3881 C   0  0  0  0  0  0  0  0  0  0  0  0
   -5.4495    0.6718    1.5814 C   0  0  0  0  0  0  0  0  0  0  0  0
    3.0070   -1.1886    0.1043 C   0  0  0  0  0  0  0  0  0  0  0  0
   -7.1102    0.0147   -0.5135 C   0  0  0  0  0  0  0  0  0  0  0  0
   -6.6568    1.3583    1.4318 C   0  0  0  0  0  0  0  0  0  0  0  0
   -7.4669    1.0058    0.3720 C   0  0  0  0  0  0  0  0  0  0  0  0
    4.4021   -0.9057    0.4644 C   0  0  0  0  0  0  0  0  0  0  0  0
   -9.0332    0.8090   -1.1075 C   0  0  0  0  0  0  0  0  0  0  0  0
    6.2872    0.3456   -0.2675 C   0  0  0  0  0  0  0  0  0  0  0  0
    7.0078   -0.2551    0.7648 C   0  0  0  0  0  0  0  0  0  0  0  0
    6.9137    1.2587   -1.1158 C   0  0  0  0  0  0  0  0  0  0  0  0
    8.3545    0.0575    0.9489 C   0  0  0  0  0  0  0  0  0  0  0  0
    8.2604    1.5714   -0.9316 C   0  0  0  0  0  0  0  0  0  0  0  0
    8.9809    0.9707    0.1007 C   0  0  0  0  0  0  0  0  0  0  0  0
   -0.0850    0.9294    0.5984 H   0  0  0  0  0  0  0  0  0  0  0  0
   -1.2647   -0.4968    2.0347 H   0  0  0  0  0  0  0  0  0  0  0  0
   -1.2891   -1.8421    0.8730 H   0  0  0  0  0  0  0  0  0  0  0  0
   -1.1276    1.3847   -1.3245 H   0  0  0  0  0  0  0  0  0  0  0  0
   -0.5752   -0.1152   -2.0847 H   0  0  0  0  0  0  0  0  0  0  0  0
   -3.2114    0.3185   -1.5474 H   0  0  0  0  0  0  0  0  0  0  0  0
   -2.4926   -1.3063   -1.4234 H   0  0  0  0  0  0  0  0  0  0  0  0
   -3.8034   -2.0488    0.3639 H   0  0  0  0  0  0  0  0  0  0  0  0
   -3.6919   -1.2939    1.9323 H   0  0  0  0  0  0  0  0  0  0  0  0
   -5.6575   -1.4564   -1.0958 H   0  0  0  0  0  0  0  0  0  0  0  0
   -4.7932    0.9306    2.4089 H   0  0  0  0  0  0  0  0  0  0  0  0
   -6.9414    2.1398    2.1272 H   0  0  0  0  0  0  0  0  0  0  0  0
    4.9480   -1.8563    0.4155 H   0  0  0  0  0  0  0  0  0  0  0  0
    4.4225   -0.5077    1.4866 H   0  0  0  0  0  0  0  0  0  0  0  0
   -9.9840    0.2975   -0.9182 H   0  0  0  0  0  0  0  0  0  0  0  0
   -9.1689    1.5061   -1.9424 H   0  0  0  0  0  0  0  0  0  0  0  0
    6.5889   -0.9682    1.4661 H   0  0  0  0  0  0  0  0  0  0  0  0
    6.3574    1.7296   -1.9217 H   0  0  0  0  0  0  0  0  0  0  0  0
    8.9167   -0.4084    1.7531 H   0  0  0  0  0  0  0  0  0  0  0  0
    8.7484    2.2823   -1.5918 H   0  0  0  0  0  0  0  0  0  0  0  0
  1 29  1  0  0  0  0
  2 14  1  0  0  0  0
  2 18  1  0  0  0  0
  3 19  1  0  0  0  0
  3 23  1  0  0  0  0
  4 21  1  0  0  0  0
  4 23  1  0  0  0  0
  5 22  1  0  0  0  0
  5 24  1  0  0  0  0
  6 10  1  0  0  0  0
  6 12  1  0  0  0  0
  6 13  1  0  0  0  0
  7  8  1  0  0  0  0
  7 14  2  0  0  0  0
  8 18  2  0  0  0  0
  9 10  1  0  0  0  0
  9 11  1  0  0  0  0
  9 14  1  0  0  0  0
  9 30  1  0  0  0  0
 10 31  1  0  0  0  0
 10 32  1  0  0  0  0
 11 12  1  0  0  0  0
 11 33  1  0  0  0  0
 11 34  1  0  0  0  0
 12 35  1  0  0  0  0
 12 36  1  0  0  0  0
 13 15  1  0  0  0  0
 13 37  1  0  0  0  0
 13 38  1  0  0  0  0
 15 16  2  0  0  0  0
 15 17  1  0  0  0  0
 16 19  1  0  0  0  0
 16 39  1  0  0  0  0
 17 20  2  0  0  0  0
 17 40  1  0  0  0  0
 18 22  1  0  0  0  0
 19 21  2  0  0  0  0
 20 21  1  0  0  0  0
 20 41  1  0  0  0  0
 22 42  1  0  0  0  0
 22 43  1  0  0  0  0
 23 44  1  0  0  0  0
 23 45  1  0  0  0  0
 24 25  2  0  0  0  0
 24 26  1  0  0  0  0
 25 27  1  0  0  0  0
 25 46  1  0  0  0  0
 26 28  2  0  0  0  0
 26 47  1  0  0  0  0
 27 29  2  0  0  0  0
 27 48  1  0  0  0  0
 28 29  1  0  0  0  0
 28 49  1  0  0  0  0
M  END
> <PUBCHEM_COMPOUND_CID>
51137599

> <PUBCHEM_CONFORMER_RMSD>
1.4

> <PUBCHEM_CONFORMER_DIVERSEORDER>
1
39
3
31
43
26
10
37
20
69
59
49
11
24
62
38
68
44
74
13
70
55
71
15
45
36
21
48
22
60
66
9
56
16
73
17
33
63
8
6
58
14
65
12
46
54
23
42
52
57
41
47
61
50
30
34
28
4
75
35
19
29
64
53
32
18
67
25
5
2
72
27
51
40
7

> <PUBCHEM_MMFF94_PARTIAL_CHARGES>
35
1 -0.19
10 0.27
12 0.27
13 0.41
14 0.3
15 -0.14
16 -0.15
17 -0.15
18 0.3
19 0.08
2 -0.28
20 -0.15
21 0.08
22 0.46
23 0.56
24 0.08
25 -0.15
26 -0.15
27 -0.15
28 -0.15
29 0.19
3 -0.36
39 0.15
4 -0.36
40 0.15
41 0.15
46 0.15
47 0.15
48 0.15
49 0.15
5 -0.36
6 -0.81
7 -0.34
8 -0.34
9 0.18

> <PUBCHEM_EFFECTIVE_ROTOR_COUNT>
7.6

> <PUBCHEM_PHARMACOPHORE_FEATURES>
9
1 3 acceptor
1 4 acceptor
1 5 acceptor
1 6 cation
5 2 7 8 14 18 rings
5 3 4 19 21 23 rings
5 6 9 10 11 12 rings
6 15 16 17 19 20 21 rings
6 24 25 26 27 28 29 rings

> <PUBCHEM_HEAVY_ATOM_COUNT>
29

> <PUBCHEM_ATOM_DEF_STEREO_COUNT>
1

> <PUBCHEM_ATOM_UDEF_STEREO_COUNT>
0

> <PUBCHEM_BOND_DEF_STEREO_COUNT>
0

> <PUBCHEM_BOND_UDEF_STEREO_COUNT>
0

> <PUBCHEM_ISOTOPIC_ATOM_COUNT>
0

> <PUBCHEM_COMPONENT_COUNT>
1

> <PUBCHEM_CACTVS_TAUTO_COUNT>
1

> <PUBCHEM_CONFORMER_ID>
030C4C3F00000001

> <PUBCHEM_MMFF94_ENERGY>
67.4979

> <PUBCHEM_FEATURE_SELFOVERLAP>
45.829

> <PUBCHEM_SHAPE_FINGERPRINT>
10 15 17603586326776519526
10054150 59 16190829587753057911
10066227 49 12031801236058860764
10076449 9 15698001842657873563
10533779 47 16008745767603127016
10670039 82 14189585104571456611
10904742 90 17846779607306923246
11135926 11 13695581183247455675
11315181 36 18342177765994644931
11386260 185 14836395948315201906
11638347 137 15213013844100188816
12082328 90 13326580631437622809
12089408 11 17989205923620189371
12522641 33 18410576176572157726
12592606 108 9943808889640967132
12838862 33 18341886407728493376
13553643 46 17676204676003632764
14150022 121 18187644661684918669
14251764 18 18272932709124504553
14251764 46 18333448742427324594
14344974 52 16200143336097091616
14394314 77 16805322210372223163
14617042 71 17896045494207730396
150020 25 15913324710699331802
15198563 99 14476972138019112411
15419008 145 13117993380181672199
15461852 350 16988840597211622573
155225 1 18411982459562846312
1577012 14 15984555411747904219
15849732 13 16128654158599104417
17093844 174 17095245822447654139
1754908 1 14201402711302219836
1754911 235 17632295678978922956
1818759 1 8430317948373587728
19301679 30 11603079662646344816
19315958 150 17822293457090890211
195137 175 18342742905780104377
19841028 212 12180107758550213408
20105231 36 12679455405400503389
2026 5 10519446077987790556
21095086 128 10952044559689896289
21150785 3 16558750109541262711
21267235 1 9799691497640668594
21792934 111 16081087082347311783
22224240 67 18260830401733599514
23576562 1 17274248586648944993
246663 6 10663819684716064091
24771293 8 18341337712608406293
249057 3 15195280954573571784
306946 40 17385713687434497157
395649 100 18342734161433054887
4017518 198 15410896275232985749
4073 2 18410299099372997971
45377200 153 13613942445175517589
4625314 4 18260268572951213082
54039377 194 10735876175559294459
5758199 1 18341896290221771370
6126387 218 17095239203512913997
636775 72 18041277661490652845
636775 8 16630519679626836423
6691757 9 18342747338693282563
9663363 56 16660360377875425989
9953998 17 17095243643870788267
9995097 26 14117798033137385743

> <PUBCHEM_SHAPE_MULTIPOLES>
551.11
35.35
1.5
1.23
22.34
0.15
-0.07
-19.21
-0.16
0.98
0.15
-1.48
-0.17
-0.86

> <PUBCHEM_SHAPE_SELFOVERLAP>
1211.718

> <PUBCHEM_SHAPE_VOLUME>
300.5

> <PUBCHEM_COORDINATE_TYPE>
2
5
10

$$$$
