75536599
  -OEChem-12032416303D

 43 45  0     1  0  0  0  0  0999 V2000
    7.1051   -0.6711    0.8447 S   0  0  0  0  0  0  0  0  0  0  0  0
   -8.6519    0.1956   -0.5710 F   0  0  0  0  0  0  0  0  0  0  0  0
    1.0601    0.9868   -0.0343 O   0  0  0  0  0  0  0  0  0  0  0  0
   -0.0947   -2.4133   -0.1379 O   0  0  0  0  0  0  0  0  0  0  0  0
    4.5069   -1.8600    0.1114 O   0  0  0  0  0  0  0  0  0  0  0  0
   -2.3639   -0.2407   -0.0588 N   0  0  0  0  0  0  0  0  0  0  0  0
    3.5809   -0.0304   -0.9739 N   0  0  0  0  0  0  0  0  0  0  0  0
   -0.9693   -0.1865    0.3484 C   0  0  1  0  0  0  0  0  0  0  0  0
   -0.0529   -1.0471   -0.5014 C   0  0  1  0  0  0  0  0  0  0  0  0
    1.3016   -0.4204   -0.1991 C   0  0  1  0  0  0  0  0  0  0  0  0
   -0.3508    1.1890    0.1596 C   0  0  0  0  0  0  0  0  0  0  0  0
    2.3240   -0.6403   -1.2998 C   0  0  0  0  0  0  0  0  0  0  0  0
   -3.2336    0.3171    0.9701 C   0  0  0  0  0  0  0  0  0  0  0  0
   -4.6814    0.2845    0.5585 C   0  0  0  0  0  0  0  0  0  0  0  0
    4.5868   -0.6999   -0.2838 C   0  0  0  0  0  0  0  0  0  0  0  0
   -5.2355    1.3651   -0.1280 C   0  0  0  0  0  0  0  0  0  0  0  0
   -5.4687   -0.8259    0.8633 C   0  0  0  0  0  0  0  0  0  0  0  0
    5.8193    0.0799   -0.0008 C   0  0  0  0  0  0  0  0  0  0  0  0
   -6.5768    1.3353   -0.5094 C   0  0  0  0  0  0  0  0  0  0  0  0
   -6.8100   -0.8557    0.4819 C   0  0  0  0  0  0  0  0  0  0  0  0
   -7.3641    0.2250   -0.2044 C   0  0  0  0  0  0  0  0  0  0  0  0
    6.1094    1.3861   -0.3287 C   0  0  0  0  0  0  0  0  0  0  0  0
    7.4046    1.7752    0.1198 C   0  0  0  0  0  0  0  0  0  0  0  0
    8.0549    0.7519    0.7736 C   0  0  0  0  0  0  0  0  0  0  0  0
   -0.8665   -0.5105    1.3939 H   0  0  0  0  0  0  0  0  0  0  0  0
   -0.3018   -0.9567   -1.5661 H   0  0  0  0  0  0  0  0  0  0  0  0
    1.6999   -0.7970    0.7524 H   0  0  0  0  0  0  0  0  0  0  0  0
   -0.7298    1.6972   -0.7346 H   0  0  0  0  0  0  0  0  0  0  0  0
   -0.5074    1.8448    1.0213 H   0  0  0  0  0  0  0  0  0  0  0  0
    1.9900   -0.1750   -2.2337 H   0  0  0  0  0  0  0  0  0  0  0  0
    2.4746   -1.7102   -1.4795 H   0  0  0  0  0  0  0  0  0  0  0  0
   -2.6255   -1.2135   -0.2212 H   0  0  0  0  0  0  0  0  0  0  0  0
   -2.9581    1.3564    1.1900 H   0  0  0  0  0  0  0  0  0  0  0  0
   -3.1209   -0.2347    1.9128 H   0  0  0  0  0  0  0  0  0  0  0  0
    0.1253   -2.4854    0.8063 H   0  0  0  0  0  0  0  0  0  0  0  0
    3.7115    0.9345   -1.2577 H   0  0  0  0  0  0  0  0  0  0  0  0
   -4.6323    2.2352   -0.3730 H   0  0  0  0  0  0  0  0  0  0  0  0
   -5.0483   -1.6748    1.3960 H   0  0  0  0  0  0  0  0  0  0  0  0
   -7.0085    2.1761   -1.0443 H   0  0  0  0  0  0  0  0  0  0  0  0
   -7.4232   -1.7202    0.7186 H   0  0  0  0  0  0  0  0  0  0  0  0
    5.4441    2.0512   -0.8631 H   0  0  0  0  0  0  0  0  0  0  0  0
    7.8374    2.7558   -0.0294 H   0  0  0  0  0  0  0  0  0  0  0  0
    9.0422    0.7719    1.2129 H   0  0  0  0  0  0  0  0  0  0  0  0
  1 18  1  0  0  0  0
  1 24  1  0  0  0  0
  2 21  1  0  0  0  0
  3 10  1  0  0  0  0
  3 11  1  0  0  0  0
  4  9  1  0  0  0  0
  4 35  1  0  0  0  0
  5 15  2  0  0  0  0
  6  8  1  0  0  0  0
  6 13  1  0  0  0  0
  6 32  1  0  0  0  0
  7 12  1  0  0  0  0
  7 15  1  0  0  0  0
  7 36  1  0  0  0  0
  8  9  1  0  0  0  0
  8 11  1  0  0  0  0
  8 25  1  0  0  0  0
  9 10  1  0  0  0  0
  9 26  1  0  0  0  0
 10 12  1  0  0  0  0
 10 27  1  0  0  0  0
 11 28  1  0  0  0  0
 11 29  1  0  0  0  0
 12 30  1  0  0  0  0
 12 31  1  0  0  0  0
 13 14  1  0  0  0  0
 13 33  1  0  0  0  0
 13 34  1  0  0  0  0
 14 16  2  0  0  0  0
 14 17  1  0  0  0  0
 15 18  1  0  0  0  0
 16 19  1  0  0  0  0
 16 37  1  0  0  0  0
 17 20  2  0  0  0  0
 17 38  1  0  0  0  0
 18 22  2  0  0  0  0
 19 21  2  0  0  0  0
 19 39  1  0  0  0  0
 20 21  1  0  0  0  0
 20 40  1  0  0  0  0
 22 23  1  0  0  0  0
 22 41  1  0  0  0  0
 23 24  2  0  0  0  0
 23 42  1  0  0  0  0
 24 43  1  0  0  0  0
M  END
> <PUBCHEM_COMPOUND_CID>
75536599

> <PUBCHEM_CONFORMER_RMSD>
1

> <PUBCHEM_CONFORMER_DIVERSEORDER>
1
118
10
4
105
13
84
110
66
32
99
5
30
41
104
50
95
79
102
106
24
103
74
70
56
28
85
26
101
108
98
86
19
6
100
43
44
60
49
21
107
25
69
83
91
39
117
63
14
73
121
111
8
64
27
82
17
52
114
81
46
20
97
71
48
34
76
22
120
55
122
78
67
42
113
119
18
40
7
75
15
89
59
23
11
68
94
38
58
96
93
54
36
45
92
57
35
87
90
2
12
61
9
112
109
115
65
53
3
88
72
31
77
16
37
80
47
62
116
51
33
29

> <PUBCHEM_MMFF94_PARTIAL_CHARGES>
34
1 -0.08
10 0.28
11 0.28
12 0.3
13 0.41
14 -0.14
15 0.71
16 -0.15
17 -0.15
18 -0.05
19 -0.15
2 -0.19
20 -0.15
21 0.19
22 -0.15
23 -0.15
24 -0.11
3 -0.56
32 0.36
35 0.4
36 0.37
37 0.15
38 0.15
39 0.15
4 -0.68
40 0.15
41 0.15
42 0.15
43 0.15
5 -0.57
6 -0.9
7 -0.73
8 0.27
9 0.28

> <PUBCHEM_EFFECTIVE_ROTOR_COUNT>
8

> <PUBCHEM_PHARMACOPHORE_FEATURES>
10
1 3 acceptor
1 4 acceptor
1 4 donor
1 5 acceptor
1 6 cation
1 6 donor
1 7 donor
5 1 18 22 23 24 rings
5 3 8 9 10 11 rings
6 14 16 17 19 20 21 rings

> <PUBCHEM_HEAVY_ATOM_COUNT>
24

> <PUBCHEM_ATOM_DEF_STEREO_COUNT>
3

> <PUBCHEM_ATOM_UDEF_STEREO_COUNT>
0

> <PUBCHEM_BOND_DEF_STEREO_COUNT>
0

> <PUBCHEM_BOND_UDEF_STEREO_COUNT>
0

> <PUBCHEM_ISOTOPIC_ATOM_COUNT>
0

> <PUBCHEM_COMPONENT_COUNT>
1

> <PUBCHEM_CACTVS_TAUTO_COUNT>
2

> <PUBCHEM_CONFORMER_ID>
048098D700000001

> <PUBCHEM_MMFF94_ENERGY>
43.3127

> <PUBCHEM_FEATURE_SELFOVERLAP>
50.747

> <PUBCHEM_SHAPE_FINGERPRINT>
10 15 18408323298161602434
10299344 5 9439404631262599829
106641 1 18341896324333297738
11315181 36 18131354103702496929
11638347 137 18040997320052355730
11719270 70 18411420592173519558
125118 31 18261115158229004108
12592606 108 7925623393841278441
13533116 47 14404915635324558222
13885169 127 17676203555169440293
13914758 101 16660361454715270565
14123256 10 16917067758951719744
14251764 18 18410574002378812636
14251764 46 18341894095134403697
14856354 85 12391507595089198617
15131766 46 17244158334111290804
15183329 4 14779550075581750160
15461852 350 17775001323787585687
15849732 13 18408887347336534124
16090146 7 13901635198500299382
16120349 18 18409444821244108724
17093844 174 17749109998470591553
20157964 124 18273218569569136982
20554085 129 18060127744307595170
21095086 128 14189579624166585332
21150785 3 17275102838421824757
21365058 27 15195569004960961117
21792934 111 18336537249537280992
220451 1 14333410017213605005
22224240 67 18413107264427114718
23035841 295 10953459639386173457
23081809 10 16343430496605440723
246663 6 8070029978036066392
24771293 8 18202010919004128184
249057 3 15554440829590341529
28498 318 12324235066490060152
3009799 131 18333453136015578449
34797466 226 14333408961036810840
4073 2 17822299036564423170
4325135 7 17132114645274423084
4339292 15 17604157051718591243
4340502 62 17530964679416821810
5207 217 17131834269835571127
5758199 1 16200436862071851519
59682541 35 17775002418693139531
636775 72 18337673006653303613
6394761 36 13406793324408816513
67123 10 18413106174169663543

> <PUBCHEM_SHAPE_MULTIPOLES>
462.91
26.87
1.6
0.92
3.4
0.17
-0.01
-6.86
2.91
-1.04
-0.06
-0.21
0.07
0.54

> <PUBCHEM_SHAPE_SELFOVERLAP>
967.755

> <PUBCHEM_SHAPE_VOLUME>
264.1

> <PUBCHEM_COORDINATE_TYPE>
2
5
10

$$$$
