26742418
  -OEChem-12032416213D

 61 64  0     1  0  0  0  0  0999 V2000
   -5.0957   -0.0407    1.6793 O   0  0  0  0  0  0  0  0  0  0  0  0
    5.6661    1.7087   -0.0002 O   0  0  0  0  0  0  0  0  0  0  0  0
   -1.1199   -2.2896    1.3700 N   0  0  2  0  0  0  0  0  0  0  0  0
   -3.1975    0.7480    0.6034 N   0  0  0  0  0  0  0  0  0  0  0  0
    1.5263   -0.1991   -1.7038 N   0  0  0  0  0  0  0  0  0  0  0  0
    3.5273    1.0867   -1.3163 N   0  0  0  0  0  0  0  0  0  0  0  0
   -0.3985   -2.2458   -1.1322 C   0  0  2  0  0  0  0  0  0  0  0  0
    0.8273   -2.0044   -0.2084 C   0  0  2  0  0  0  0  0  0  0  0  0
   -2.0124   -1.3840    0.5995 C   0  0  2  0  0  0  0  0  0  0  0  0
   -1.4781   -1.1837   -0.8350 C   0  0  0  0  0  0  0  0  0  0  0  0
   -0.9899   -3.6162   -0.7380 C   0  0  0  0  0  0  0  0  0  0  0  0
    0.2899   -1.8434    1.2423 C   0  0  0  0  0  0  0  0  0  0  0  0
   -1.2311   -3.6458    0.7814 C   0  0  0  0  0  0  0  0  0  0  0  0
   -2.2457   -0.0504    1.3125 C   0  0  0  0  0  0  0  0  0  0  0  0
    1.8064   -0.9023   -0.5870 C   0  0  0  0  0  0  0  0  0  0  0  0
    2.9123   -0.6732    0.2061 C   0  0  0  0  0  0  0  0  0  0  0  0
   -4.5703    0.6919    0.8436 C   0  0  0  0  0  0  0  0  0  0  0  0
    3.7462    0.3440   -0.2114 C   0  0  0  0  0  0  0  0  0  0  0  0
   -5.3746    1.6330   -0.0589 C   0  0  0  0  0  0  0  0  0  0  0  0
    2.4156    0.7661   -2.0056 C   0  0  0  0  0  0  0  0  0  0  0  0
   -5.2063    1.2931   -1.5501 C   0  0  0  0  0  0  0  0  0  0  0  0
   -5.0086    3.1005    0.2435 C   0  0  0  0  0  0  0  0  0  0  0  0
    4.9355    0.6882    0.5213 C   0  0  0  0  0  0  0  0  0  0  0  0
    2.1393    1.5668   -3.2330 C   0  0  0  0  0  0  0  0  0  0  0  0
   -5.6212   -0.1382   -1.8705 C   0  0  0  0  0  0  0  0  0  0  0  0
   -5.1967    3.5178    1.6968 C   0  0  0  0  0  0  0  0  0  0  0  0
    5.5259    0.2076    1.6670 C   0  0  0  0  0  0  0  0  0  0  0  0
    6.6940    0.9827    1.8621 C   0  0  0  0  0  0  0  0  0  0  0  0
    6.7343    1.8816    0.8216 C   0  0  0  0  0  0  0  0  0  0  0  0
   -0.1225   -2.2392   -2.1919 H   0  0  0  0  0  0  0  0  0  0  0  0
    1.4269   -2.9273   -0.2435 H   0  0  0  0  0  0  0  0  0  0  0  0
   -2.9968   -1.8704    0.5278 H   0  0  0  0  0  0  0  0  0  0  0  0
   -1.0610   -0.1804   -0.9761 H   0  0  0  0  0  0  0  0  0  0  0  0
   -2.3036   -1.2895   -1.5498 H   0  0  0  0  0  0  0  0  0  0  0  0
   -0.3059   -4.4245   -1.0220 H   0  0  0  0  0  0  0  0  0  0  0  0
   -1.9318   -3.7840   -1.2745 H   0  0  0  0  0  0  0  0  0  0  0  0
    0.9117   -2.4387    1.9244 H   0  0  0  0  0  0  0  0  0  0  0  0
    0.3874   -0.8125    1.6019 H   0  0  0  0  0  0  0  0  0  0  0  0
   -2.2219   -4.0662    0.9932 H   0  0  0  0  0  0  0  0  0  0  0  0
   -0.5156   -4.3216    1.2671 H   0  0  0  0  0  0  0  0  0  0  0  0
   -1.3288    0.5432    1.3830 H   0  0  0  0  0  0  0  0  0  0  0  0
   -2.6112   -0.2232    2.3314 H   0  0  0  0  0  0  0  0  0  0  0  0
   -2.8404    1.3784   -0.1073 H   0  0  0  0  0  0  0  0  0  0  0  0
    3.1075   -1.2640    1.0927 H   0  0  0  0  0  0  0  0  0  0  0  0
   -6.4314    1.4897    0.2054 H   0  0  0  0  0  0  0  0  0  0  0  0
   -5.8244    1.9767   -2.1449 H   0  0  0  0  0  0  0  0  0  0  0  0
   -4.1705    1.4447   -1.8748 H   0  0  0  0  0  0  0  0  0  0  0  0
   -3.9718    3.3069   -0.0478 H   0  0  0  0  0  0  0  0  0  0  0  0
   -5.6355    3.7501   -0.3803 H   0  0  0  0  0  0  0  0  0  0  0  0
    2.6717    1.1328   -4.0844 H   0  0  0  0  0  0  0  0  0  0  0  0
    1.0682    1.5788   -3.4585 H   0  0  0  0  0  0  0  0  0  0  0  0
    2.4698    2.6019   -3.1018 H   0  0  0  0  0  0  0  0  0  0  0  0
   -5.5550   -0.3144   -2.9489 H   0  0  0  0  0  0  0  0  0  0  0  0
   -6.6541   -0.3259   -1.5604 H   0  0  0  0  0  0  0  0  0  0  0  0
   -4.9733   -0.8675   -1.3750 H   0  0  0  0  0  0  0  0  0  0  0  0
   -6.2226    3.3274    2.0273 H   0  0  0  0  0  0  0  0  0  0  0  0
   -4.5137    2.9801    2.3611 H   0  0  0  0  0  0  0  0  0  0  0  0
   -4.9971    4.5883    1.8095 H   0  0  0  0  0  0  0  0  0  0  0  0
    5.1706   -0.5988    2.2929 H   0  0  0  0  0  0  0  0  0  0  0  0
    7.4162    0.8969    2.6609 H   0  0  0  0  0  0  0  0  0  0  0  0
    7.4195    2.6672    0.5384 H   0  0  0  0  0  0  0  0  0  0  0  0
  1 17  2  0  0  0  0
  2 23  1  0  0  0  0
  2 29  1  0  0  0  0
  3  9  1  0  0  0  0
  3 12  1  0  0  0  0
  3 13  1  0  0  0  0
  4 14  1  0  0  0  0
  4 17  1  0  0  0  0
  4 43  1  0  0  0  0
  5 15  2  0  0  0  0
  5 20  1  0  0  0  0
  6 18  1  0  0  0  0
  6 20  2  0  0  0  0
  7  8  1  0  0  0  0
  7 10  1  0  0  0  0
  7 11  1  0  0  0  0
  7 30  1  0  0  0  0
  8 12  1  0  0  0  0
  8 15  1  0  0  0  0
  8 31  1  0  0  0  0
  9 10  1  0  0  0  0
  9 14  1  0  0  0  0
  9 32  1  0  0  0  0
 10 33  1  0  0  0  0
 10 34  1  0  0  0  0
 11 13  1  0  0  0  0
 11 35  1  0  0  0  0
 11 36  1  0  0  0  0
 12 37  1  0  0  0  0
 12 38  1  0  0  0  0
 13 39  1  0  0  0  0
 13 40  1  0  0  0  0
 14 41  1  0  0  0  0
 14 42  1  0  0  0  0
 15 16  1  0  0  0  0
 16 18  2  0  0  0  0
 16 44  1  0  0  0  0
 17 19  1  0  0  0  0
 18 23  1  0  0  0  0
 19 21  1  0  0  0  0
 19 22  1  0  0  0  0
 19 45  1  0  0  0  0
 20 24  1  0  0  0  0
 21 25  1  0  0  0  0
 21 46  1  0  0  0  0
 21 47  1  0  0  0  0
 22 26  1  0  0  0  0
 22 48  1  0  0  0  0
 22 49  1  0  0  0  0
 23 27  2  0  0  0  0
 24 50  1  0  0  0  0
 24 51  1  0  0  0  0
 24 52  1  0  0  0  0
 25 53  1  0  0  0  0
 25 54  1  0  0  0  0
 25 55  1  0  0  0  0
 26 56  1  0  0  0  0
 26 57  1  0  0  0  0
 26 58  1  0  0  0  0
 27 28  1  0  0  0  0
 27 59  1  0  0  0  0
 28 29  2  0  0  0  0
 28 60  1  0  0  0  0
 29 61  1  0  0  0  0
M  END
> <PUBCHEM_COMPOUND_CID>
26742418

> <PUBCHEM_CONFORMER_RMSD>
1

> <PUBCHEM_CONFORMER_DIVERSEORDER>
1
80
36
57
41
123
61
109
106
15
137
101
94
121
69
134
93
51
64
95
35
82
117
130
128
68
124
135
81
133
73
105
70
63
86
119
113
84
60
58
21
74
78
139
20
91
129
22
32
17
28
120
127
62
118
76
66
110
131
38
37
108
25
77
6
27
47
132
85
4
12
48
67
65
140
104
42
40
114
100
115
90
26
111
49
54
96
87
141
112
89
53
29
8
103
44
136
46
33
116
5
107
3
83
98
75
9
55
24
23
50
59
16
71
56
34
11
125
88
45
99
43
13
97
31
92
19
72
126
10
102
18
14
122
30
39
52
138
79
2
7

> <PUBCHEM_MMFF94_PARTIAL_CHARGES>
27
1 -0.57
12 0.27
13 0.27
14 0.3
15 0.17
16 -0.15
17 0.57
18 0.36
19 0.06
2 -0.28
20 0.48
23 0.09
24 0.14
27 -0.15
28 -0.15
29 -0.01
3 -0.81
4 -0.73
43 0.37
44 0.15
5 -0.62
59 0.15
6 -0.62
60 0.15
61 0.15
8 0.14
9 0.27

> <PUBCHEM_EFFECTIVE_ROTOR_COUNT>
9.2

> <PUBCHEM_PHARMACOPHORE_FEATURES>
11
1 1 acceptor
1 2 acceptor
1 25 hydrophobe
1 26 hydrophobe
1 3 cation
1 4 donor
1 5 acceptor
3 5 6 20 cation
5 2 23 27 28 29 rings
6 5 6 15 16 18 20 rings
8 3 7 8 9 10 11 12 13 rings

> <PUBCHEM_HEAVY_ATOM_COUNT>
29

> <PUBCHEM_ATOM_DEF_STEREO_COUNT>
3

> <PUBCHEM_ATOM_UDEF_STEREO_COUNT>
0

> <PUBCHEM_BOND_DEF_STEREO_COUNT>
0

> <PUBCHEM_BOND_UDEF_STEREO_COUNT>
0

> <PUBCHEM_ISOTOPIC_ATOM_COUNT>
0

> <PUBCHEM_COMPONENT_COUNT>
1

> <PUBCHEM_CACTVS_TAUTO_COUNT>
2

> <PUBCHEM_CONFORMER_ID>
01980E9200000001

> <PUBCHEM_MMFF94_ENERGY>
56.8133

> <PUBCHEM_FEATURE_SELFOVERLAP>
55.82

> <PUBCHEM_SHAPE_FINGERPRINT>
10042902 136 8142074373491813801
10692045 39 18336826369292294578
10764073 3 15503203480631056951
11135609 201 18342743979917418529
11720765 8 17053040857192027799
11961588 58 17489297607770666122
12107183 9 18334565821030835930
12403259 118 17967824868146483075
12422481 6 17676486099276477268
12633257 1 16515693259624616594
12760667 363 10665222657574702379
13103583 49 16805325530656074098
13673619 4 12540691527162651318
13947920 24 15913323641252287367
14251764 30 7925625609422086320
14294032 229 18269292299287647163
14767858 380 12967128354609971376
14932701 244 17846214501675122533
14950920 106 16371581425928872697
14951699 99 18263367044274545892
15238133 3 18260839219617716004
15537594 2 11312057638866436789
15669420 48 17131540731023635637
15684973 49 18121225544032026478
17974551 9 16082236136344102017
17980427 23 18264486368400972004
19246450 95 17241308188948718304
19304671 126 17130156295128718625
20642791 268 17896598582804859396
20775438 99 11022662888759818104
21033648 29 18338248084585832401
21304303 282 18271794770340923231
21403212 168 17604130567567809751
22950370 63 8646478639874650483
23522609 53 17750527342269119004
23559900 14 17898873257024051619
25269216 80 16343692245862965141
2748736 6 18412539899284516080
2838139 119 18060129942855700568
3117164 225 17095243656908482370
312425 83 15840167489069718833
3459 39 18412252931023307680
393628 194 18412830191792785609
437815 12 10665235847419339489
46194498 28 15337965686717166071
484985 159 7997704094887550623
6371009 1 18260830432056697261
6371380 46 18339370652506103278
6697151 62 16629146286445310630
7918774 8 10809346641527419560
7970288 3 8214138547230294120
9981440 41 18335148566177385675

> <PUBCHEM_SHAPE_MULTIPOLES>
565.14
15.82
3.72
2.26
7
1.38
1.24
-17.13
-5.13
-3.93
-0.85
0.43
-0.86
-0.7

> <PUBCHEM_SHAPE_SELFOVERLAP>
1197.96

> <PUBCHEM_SHAPE_VOLUME>
312.1

> <PUBCHEM_COORDINATE_TYPE>
2
5
10

$$$$
