45783346
  -OEChem-12032416263D

 52 55  0     1  0  0  0  0  0999 V2000
   -2.0236    0.6839    2.6229 F   0  0  0  0  0  0  0  0  0  0  0  0
   -2.1699   -0.6367   -2.0978 O   0  0  0  0  0  0  0  0  0  0  0  0
    4.2340    0.1887    0.4236 O   0  0  0  0  0  0  0  0  0  0  0  0
    6.3872    1.9611    0.6608 O   0  0  0  0  0  0  0  0  0  0  0  0
   -3.2878    1.7516    0.2249 N   0  0  1  0  0  0  0  0  0  0  0  0
   -0.6416    0.5361   -0.9551 N   0  0  0  0  0  0  0  0  0  0  0  0
   -0.9914   -1.3927   -2.1347 N   0  0  0  0  0  0  0  0  0  0  0  0
    3.8825   -1.7694   -0.7708 N   0  0  0  0  0  0  0  0  0  0  0  0
   -3.0030    1.4773   -1.1977 C   0  0  1  0  0  0  0  0  0  0  0  0
   -2.6852    2.8559   -1.8058 C   0  0  0  0  0  0  0  0  0  0  0  0
   -2.8765    3.8468   -0.6664 C   0  0  0  0  0  0  0  0  0  0  0  0
   -3.8028    3.1196    0.2872 C   0  0  0  0  0  0  0  0  0  0  0  0
   -4.2076    0.7918    0.8221 C   0  0  0  0  0  0  0  0  0  0  0  0
   -1.8770    0.4822   -1.3847 C   0  0  0  0  0  0  0  0  0  0  0  0
   -3.5140   -0.4909    1.1969 C   0  0  0  0  0  0  0  0  0  0  0  0
   -2.4435   -0.4723    2.0908 C   0  0  0  0  0  0  0  0  0  0  0  0
   -3.9441   -1.6993    0.6487 C   0  0  0  0  0  0  0  0  0  0  0  0
   -0.1372   -0.6356   -1.4397 C   0  0  0  0  0  0  0  0  0  0  0  0
   -1.8029   -1.6621    2.4366 C   0  0  0  0  0  0  0  0  0  0  0  0
   -3.3034   -2.8891    0.9944 C   0  0  0  0  0  0  0  0  0  0  0  0
    1.2259   -1.0199   -1.2128 C   0  0  0  0  0  0  0  0  0  0  0  0
   -2.2328   -2.8705    1.8884 C   0  0  0  0  0  0  0  0  0  0  0  0
    2.0725   -0.1925   -0.4831 C   0  0  0  0  0  0  0  0  0  0  0  0
    1.7061   -2.2215   -1.7216 C   0  0  0  0  0  0  0  0  0  0  0  0
    3.3801   -0.6091   -0.2920 C   0  0  0  0  0  0  0  0  0  0  0  0
    3.0301   -2.5474   -1.4751 C   0  0  0  0  0  0  0  0  0  0  0  0
    5.5648   -0.2860    0.5902 C   0  0  0  0  0  0  0  0  0  0  0  0
    6.3590    0.7352    1.3815 C   0  0  0  0  0  0  0  0  0  0  0  0
    7.1021    2.9647    1.3681 C   0  0  0  0  0  0  0  0  0  0  0  0
   -3.8989    1.0950   -1.7072 H   0  0  0  0  0  0  0  0  0  0  0  0
   -1.6770    2.9359   -2.2262 H   0  0  0  0  0  0  0  0  0  0  0  0
   -3.4005    3.0782   -2.6072 H   0  0  0  0  0  0  0  0  0  0  0  0
   -3.2916    4.7985   -1.0109 H   0  0  0  0  0  0  0  0  0  0  0  0
   -1.9125    4.0497   -0.1834 H   0  0  0  0  0  0  0  0  0  0  0  0
   -4.8393    3.1811   -0.0680 H   0  0  0  0  0  0  0  0  0  0  0  0
   -3.7468    3.5357    1.2978 H   0  0  0  0  0  0  0  0  0  0  0  0
   -5.0769    0.6069    0.1775 H   0  0  0  0  0  0  0  0  0  0  0  0
   -4.6169    1.1995    1.7572 H   0  0  0  0  0  0  0  0  0  0  0  0
   -4.7752   -1.7287   -0.0506 H   0  0  0  0  0  0  0  0  0  0  0  0
   -0.9687   -1.6471    3.1317 H   0  0  0  0  0  0  0  0  0  0  0  0
   -3.6372   -3.8299    0.5665 H   0  0  0  0  0  0  0  0  0  0  0  0
   -1.7332   -3.7968    2.1567 H   0  0  0  0  0  0  0  0  0  0  0  0
    1.7416    0.7539   -0.0666 H   0  0  0  0  0  0  0  0  0  0  0  0
    1.0928   -2.9069   -2.2973 H   0  0  0  0  0  0  0  0  0  0  0  0
    3.4536   -3.4734   -1.8498 H   0  0  0  0  0  0  0  0  0  0  0  0
    6.0311   -0.4152   -0.3945 H   0  0  0  0  0  0  0  0  0  0  0  0
    5.5627   -1.2400    1.1307 H   0  0  0  0  0  0  0  0  0  0  0  0
    5.8793    0.9053    2.3525 H   0  0  0  0  0  0  0  0  0  0  0  0
    7.3811    0.3738    1.5398 H   0  0  0  0  0  0  0  0  0  0  0  0
    6.6213    3.1738    2.3286 H   0  0  0  0  0  0  0  0  0  0  0  0
    8.1407    2.6577    1.5250 H   0  0  0  0  0  0  0  0  0  0  0  0
    7.0955    3.8791    0.7689 H   0  0  0  0  0  0  0  0  0  0  0  0
  1 16  1  0  0  0  0
  2  7  1  0  0  0  0
  2 14  1  0  0  0  0
  3 25  1  0  0  0  0
  3 27  1  0  0  0  0
  4 28  1  0  0  0  0
  4 29  1  0  0  0  0
  5  9  1  0  0  0  0
  5 12  1  0  0  0  0
  5 13  1  0  0  0  0
  6 14  2  0  0  0  0
  6 18  1  0  0  0  0
  7 18  2  0  0  0  0
  8 25  2  0  0  0  0
  8 26  1  0  0  0  0
  9 10  1  0  0  0  0
  9 14  1  0  0  0  0
  9 30  1  0  0  0  0
 10 11  1  0  0  0  0
 10 31  1  0  0  0  0
 10 32  1  0  0  0  0
 11 12  1  0  0  0  0
 11 33  1  0  0  0  0
 11 34  1  0  0  0  0
 12 35  1  0  0  0  0
 12 36  1  0  0  0  0
 13 15  1  0  0  0  0
 13 37  1  0  0  0  0
 13 38  1  0  0  0  0
 15 16  1  0  0  0  0
 15 17  2  0  0  0  0
 16 19  2  0  0  0  0
 17 20  1  0  0  0  0
 17 39  1  0  0  0  0
 18 21  1  0  0  0  0
 19 22  1  0  0  0  0
 19 40  1  0  0  0  0
 20 22  2  0  0  0  0
 20 41  1  0  0  0  0
 21 23  2  0  0  0  0
 21 24  1  0  0  0  0
 22 42  1  0  0  0  0
 23 25  1  0  0  0  0
 23 43  1  0  0  0  0
 24 26  2  0  0  0  0
 24 44  1  0  0  0  0
 26 45  1  0  0  0  0
 27 28  1  0  0  0  0
 27 46  1  0  0  0  0
 27 47  1  0  0  0  0
 28 48  1  0  0  0  0
 28 49  1  0  0  0  0
 29 50  1  0  0  0  0
 29 51  1  0  0  0  0
 29 52  1  0  0  0  0
M  END
> <PUBCHEM_COMPOUND_CID>
45783346

> <PUBCHEM_CONFORMER_RMSD>
1

> <PUBCHEM_CONFORMER_DIVERSEORDER>
1
27
111
115
56
96
32
123
105
134
143
26
106
133
51
157
97
139
70
163
57
58
54
150
136
41
158
129
131
114
36
46
99
39
164
76
82
151
107
23
89
67
19
61
128
161
148
95
126
153
140
28
155
160
60
50
79
86
62
74
147
7
119
152
38
18
135
45
72
100
15
145
132
59
142
93
108
104
77
73
29
90
165
156
55
162
22
146
154
66
121
102
166
130
25
149
13
109
138
20
127
63
21
40
94
11
84
85
101
87
83
3
110
14
43
159
98
137
69
30
47
52
2
44
144
103
141
4
117
116
120
64
42
10
17
75
91
33
68
5
88
118
81
37
71
16
9
48
65
124
49
6
92
122
53
80
8
113
112
78
125
24
31
12
35
34

> <PUBCHEM_MMFF94_PARTIAL_CHARGES>
34
1 -0.19
12 0.27
13 0.41
14 0.3
15 -0.14
16 0.19
17 -0.15
18 0.46
19 -0.15
2 -0.02
20 -0.15
21 0.05
22 -0.15
23 -0.15
24 -0.15
25 0.39
26 0.16
27 0.28
28 0.28
29 0.28
3 -0.36
39 0.15
4 -0.56
40 0.15
41 0.15
42 0.15
43 0.15
44 0.15
45 0.15
5 -0.81
6 -0.57
7 -0.41
8 -0.62
9 0.45

> <PUBCHEM_EFFECTIVE_ROTOR_COUNT>
9

> <PUBCHEM_PHARMACOPHORE_FEATURES>
7
1 4 acceptor
1 5 cation
3 6 7 18 cation
5 2 6 7 14 18 rings
5 5 9 10 11 12 rings
6 15 16 17 19 20 22 rings
6 8 21 23 24 25 26 rings

> <PUBCHEM_HEAVY_ATOM_COUNT>
29

> <PUBCHEM_ATOM_DEF_STEREO_COUNT>
1

> <PUBCHEM_ATOM_UDEF_STEREO_COUNT>
0

> <PUBCHEM_BOND_DEF_STEREO_COUNT>
0

> <PUBCHEM_BOND_UDEF_STEREO_COUNT>
0

> <PUBCHEM_ISOTOPIC_ATOM_COUNT>
0

> <PUBCHEM_COMPONENT_COUNT>
1

> <PUBCHEM_CACTVS_TAUTO_COUNT>
1

> <PUBCHEM_CONFORMER_ID>
02BA993200000001

> <PUBCHEM_MMFF94_ENERGY>
62.3658

> <PUBCHEM_FEATURE_SELFOVERLAP>
35.523

> <PUBCHEM_SHAPE_FINGERPRINT>
10319926 262 18187930517754656118
10930396 42 18114452449008901145
11273773 118 18201159962282793836
12523318 42 17821727247293590265
12633257 1 18190769516537532777
12788726 201 17823727268130600423
13004483 165 18116452508110005619
13583140 156 18272097049943575006
13994607 96 15913331282268333015
14081887 123 18187094927034032535
15513586 35 18192712473959850972
15575132 122 14189029812987615011
16067690 210 18189036630678997688
16120349 306 16950551147702329770
20554085 129 17533486838774177845
21033648 29 17753612347514101437
22956985 138 17035010443023674995
23559900 14 17900278415551402598
23728640 28 17606149241590217979
3459 110 18187928447348005704
3552219 110 16914529141533601847
376196 1 17764862503329027181
392239 28 16950554520101423956
469060 322 17697017503435195529
484985 159 13479129103737164721
5104073 3 18261379037183028450
5265222 85 17248408757521157543
5364581 5 18262238940790881096
602551 16 17749970855191678766
6034566 193 17846495963392320044
9981440 41 18270101445034467990

> <PUBCHEM_SHAPE_MULTIPOLES>
552
13.01
3.98
2.46
29.21
2.27
0.27
8.23
7.28
-2.59
0.2
-0.65
-0.83
4.31

> <PUBCHEM_SHAPE_SELFOVERLAP>
1186.656

> <PUBCHEM_SHAPE_VOLUME>
307.2

> <PUBCHEM_COORDINATE_TYPE>
2
5
10

$$$$
