25388788
  -OEChem-12032416163D

 62 65  0     1  0  0  0  0  0999 V2000
   -7.0524    1.2336    0.7312 F   0  0  0  0  0  0  0  0  0  0  0  0
   -7.2319    0.2337   -1.1912 F   0  0  0  0  0  0  0  0  0  0  0  0
   -6.0976    2.0811   -1.0221 F   0  0  0  0  0  0  0  0  0  0  0  0
   -1.6588   -3.4147    0.6620 O   0  0  0  0  0  0  0  0  0  0  0  0
    2.8704   -3.0487    0.1836 N   0  0  2  0  0  0  0  0  0  0  0  0
    4.7564    1.3956   -0.0548 N   0  0  1  0  0  0  0  0  0  0  0  0
   -0.4436   -1.4647    0.9870 N   0  0  0  0  0  0  0  0  0  0  0  0
    3.3522   -0.9265   -1.2416 C   0  0  2  0  0  0  0  0  0  0  0  0
    4.3013   -1.0004   -0.0239 C   0  0  2  0  0  0  0  0  0  0  0  0
    1.6116   -2.2868   -0.0374 C   0  0  2  0  0  0  0  0  0  0  0  0
    1.8923   -0.9463   -0.7523 C   0  0  0  0  0  0  0  0  0  0  0  0
    3.8766   -2.1947    0.8600 C   0  0  0  0  0  0  0  0  0  0  0  0
    3.5758   -2.2114   -2.0620 C   0  0  0  0  0  0  0  0  0  0  0  0
    3.4092   -3.4349   -1.1433 C   0  0  0  0  0  0  0  0  0  0  0  0
    4.3581    0.2994    0.7753 C   0  0  0  0  0  0  0  0  0  0  0  0
    0.8165   -2.0861    1.2549 C   0  0  0  0  0  0  0  0  0  0  0  0
    4.3200    2.6865    0.5056 C   0  0  0  0  0  0  0  0  0  0  0  0
    6.2162    1.4219   -0.2542 C   0  0  0  0  0  0  0  0  0  0  0  0
   -1.6013   -2.1887    0.7070 C   0  0  0  0  0  0  0  0  0  0  0  0
    2.8485    2.9222    0.2909 C   0  0  0  0  0  0  0  0  0  0  0  0
   -2.8242   -1.3939    0.4246 C   0  0  0  0  0  0  0  0  0  0  0  0
    2.4067    3.5699   -0.8628 C   0  0  0  0  0  0  0  0  0  0  0  0
    1.9269    2.4926    1.2459 C   0  0  0  0  0  0  0  0  0  0  0  0
   -3.8305   -1.9254   -0.3820 C   0  0  0  0  0  0  0  0  0  0  0  0
   -2.9660   -0.1160    0.9655 C   0  0  0  0  0  0  0  0  0  0  0  0
    1.0433    3.7876   -1.0615 C   0  0  0  0  0  0  0  0  0  0  0  0
    0.5636    2.7102    1.0470 C   0  0  0  0  0  0  0  0  0  0  0  0
    0.1217    3.3577   -0.1067 C   0  0  0  0  0  0  0  0  0  0  0  0
   -4.9786   -1.1790   -0.6476 C   0  0  0  0  0  0  0  0  0  0  0  0
   -4.1140    0.6305    0.6997 C   0  0  0  0  0  0  0  0  0  0  0  0
   -5.1202    0.0990   -0.1069 C   0  0  0  0  0  0  0  0  0  0  0  0
   -6.3484    0.8968   -0.3897 C   0  0  0  0  0  0  0  0  0  0  0  0
    3.5392   -0.0502   -1.8701 H   0  0  0  0  0  0  0  0  0  0  0  0
    5.3090   -1.2270   -0.3980 H   0  0  0  0  0  0  0  0  0  0  0  0
    0.9744   -2.8919   -0.6994 H   0  0  0  0  0  0  0  0  0  0  0  0
    1.6983   -0.0873   -0.1061 H   0  0  0  0  0  0  0  0  0  0  0  0
    1.2182   -0.8476   -1.6127 H   0  0  0  0  0  0  0  0  0  0  0  0
    4.7608   -2.8032    1.0920 H   0  0  0  0  0  0  0  0  0  0  0  0
    3.5030   -1.8687    1.8370 H   0  0  0  0  0  0  0  0  0  0  0  0
    4.5786   -2.2120   -2.5051 H   0  0  0  0  0  0  0  0  0  0  0  0
    2.8555   -2.2589   -2.8876 H   0  0  0  0  0  0  0  0  0  0  0  0
    2.7460   -4.1693   -1.6169 H   0  0  0  0  0  0  0  0  0  0  0  0
    4.3713   -3.9478   -1.0182 H   0  0  0  0  0  0  0  0  0  0  0  0
    5.0398    0.1791    1.6293 H   0  0  0  0  0  0  0  0  0  0  0  0
    3.3762    0.4313    1.2279 H   0  0  0  0  0  0  0  0  0  0  0  0
    1.3420   -1.4359    1.9615 H   0  0  0  0  0  0  0  0  0  0  0  0
    0.6443   -3.0492    1.7491 H   0  0  0  0  0  0  0  0  0  0  0  0
   -0.4528   -0.4511    0.9483 H   0  0  0  0  0  0  0  0  0  0  0  0
    4.8549    3.5136    0.0182 H   0  0  0  0  0  0  0  0  0  0  0  0
    4.5725    2.7676    1.5720 H   0  0  0  0  0  0  0  0  0  0  0  0
    6.5749    0.5047   -0.7308 H   0  0  0  0  0  0  0  0  0  0  0  0
    6.7569    1.5582    0.6895 H   0  0  0  0  0  0  0  0  0  0  0  0
    6.4932    2.2390   -0.9303 H   0  0  0  0  0  0  0  0  0  0  0  0
    3.1137    3.9073   -1.6160 H   0  0  0  0  0  0  0  0  0  0  0  0
    2.2497    2.0168    2.1676 H   0  0  0  0  0  0  0  0  0  0  0  0
   -3.7365   -2.9172   -0.8163 H   0  0  0  0  0  0  0  0  0  0  0  0
   -2.2208    0.3228    1.6222 H   0  0  0  0  0  0  0  0  0  0  0  0
    0.6991    4.2911   -1.9601 H   0  0  0  0  0  0  0  0  0  0  0  0
   -0.1536    2.3806    1.7931 H   0  0  0  0  0  0  0  0  0  0  0  0
   -0.9398    3.5271   -0.2612 H   0  0  0  0  0  0  0  0  0  0  0  0
   -5.7503   -1.6108   -1.2787 H   0  0  0  0  0  0  0  0  0  0  0  0
   -4.2186    1.6229    1.1305 H   0  0  0  0  0  0  0  0  0  0  0  0
  1 32  1  0  0  0  0
  2 32  1  0  0  0  0
  3 32  1  0  0  0  0
  4 19  2  0  0  0  0
  5 10  1  0  0  0  0
  5 12  1  0  0  0  0
  5 14  1  0  0  0  0
  6 15  1  0  0  0  0
  6 17  1  0  0  0  0
  6 18  1  0  0  0  0
  7 16  1  0  0  0  0
  7 19  1  0  0  0  0
  7 48  1  0  0  0  0
  8  9  1  0  0  0  0
  8 11  1  0  0  0  0
  8 13  1  0  0  0  0
  8 33  1  0  0  0  0
  9 12  1  0  0  0  0
  9 15  1  0  0  0  0
  9 34  1  0  0  0  0
 10 11  1  0  0  0  0
 10 16  1  0  0  0  0
 10 35  1  0  0  0  0
 11 36  1  0  0  0  0
 11 37  1  0  0  0  0
 12 38  1  0  0  0  0
 12 39  1  0  0  0  0
 13 14  1  0  0  0  0
 13 40  1  0  0  0  0
 13 41  1  0  0  0  0
 14 42  1  0  0  0  0
 14 43  1  0  0  0  0
 15 44  1  0  0  0  0
 15 45  1  0  0  0  0
 16 46  1  0  0  0  0
 16 47  1  0  0  0  0
 17 20  1  0  0  0  0
 17 49  1  0  0  0  0
 17 50  1  0  0  0  0
 18 51  1  0  0  0  0
 18 52  1  0  0  0  0
 18 53  1  0  0  0  0
 19 21  1  0  0  0  0
 20 22  2  0  0  0  0
 20 23  1  0  0  0  0
 21 24  2  0  0  0  0
 21 25  1  0  0  0  0
 22 26  1  0  0  0  0
 22 54  1  0  0  0  0
 23 27  2  0  0  0  0
 23 55  1  0  0  0  0
 24 29  1  0  0  0  0
 24 56  1  0  0  0  0
 25 30  2  0  0  0  0
 25 57  1  0  0  0  0
 26 28  2  0  0  0  0
 26 58  1  0  0  0  0
 27 28  1  0  0  0  0
 27 59  1  0  0  0  0
 28 60  1  0  0  0  0
 29 31  2  0  0  0  0
 29 61  1  0  0  0  0
 30 31  1  0  0  0  0
 30 62  1  0  0  0  0
 31 32  1  0  0  0  0
M  END
> <PUBCHEM_COMPOUND_CID>
25388788

> <PUBCHEM_CONFORMER_RMSD>
1

> <PUBCHEM_CONFORMER_DIVERSEORDER>
1
20
102
79
116
34
76
106
108
96
14
57
89
107
56
22
18
84
17
91
15
87
42
55
61
47
115
110
119
99
92
113
30
93
46
28
9
24
62
69
19
88
29
100
70
43
51
25
27
40
65
31
23
95
81
71
35
118
26
7
64
80
73
39
4
49
33
78
32
21
117
58
3
97
59
90
60
13
94
66
67
38
82
101
2
75
111
86
120
10
77
114
83
109
41
68
44
53
98
54
45
72
5
37
50
63
103
48
12
8
85
16
36
52
105
104
11
6
112
74

> <PUBCHEM_MMFF94_PARTIAL_CHARGES>
38
1 -0.34
10 0.27
12 0.27
14 0.27
15 0.27
16 0.3
17 0.41
18 0.27
19 0.54
2 -0.34
20 -0.14
21 0.09
22 -0.15
23 -0.15
24 -0.15
25 -0.15
26 -0.15
27 -0.15
28 -0.15
29 -0.15
3 -0.34
30 -0.15
31 -0.14
32 1.16
4 -0.57
48 0.37
5 -0.81
54 0.15
55 0.15
56 0.15
57 0.15
58 0.15
59 0.15
6 -0.81
60 0.15
61 0.15
62 0.15
7 -0.73

> <PUBCHEM_EFFECTIVE_ROTOR_COUNT>
10.2

> <PUBCHEM_PHARMACOPHORE_FEATURES>
7
1 4 acceptor
1 5 cation
1 6 cation
1 7 donor
6 20 22 23 26 27 28 rings
6 21 24 25 29 30 31 rings
8 5 8 9 10 11 12 13 14 rings

> <PUBCHEM_HEAVY_ATOM_COUNT>
32

> <PUBCHEM_ATOM_DEF_STEREO_COUNT>
3

> <PUBCHEM_ATOM_UDEF_STEREO_COUNT>
0

> <PUBCHEM_BOND_DEF_STEREO_COUNT>
0

> <PUBCHEM_BOND_UDEF_STEREO_COUNT>
0

> <PUBCHEM_ISOTOPIC_ATOM_COUNT>
0

> <PUBCHEM_COMPONENT_COUNT>
1

> <PUBCHEM_CACTVS_TAUTO_COUNT>
2

> <PUBCHEM_CONFORMER_ID>
018366F400000001

> <PUBCHEM_MMFF94_ENERGY>
82.5287

> <PUBCHEM_FEATURE_SELFOVERLAP>
35.522

> <PUBCHEM_SHAPE_FINGERPRINT>
10006869 2 18410565194476996538
10439779 11 18267011946404310042
10675989 125 18263365798227543658
10864689 126 17616531762055688813
11513181 2 17487639449762153564
12925494 130 18336825415893379083
13402501 40 18335980951865728236
1361 2 18273495654525015647
14117953 113 18413388714277496014
14251764 38 18047473606083860471
14681490 219 18341891875238309089
15082195 135 18201424914009094823
15183329 4 18412542128789183073
15210252 30 18187096065616941780
15238133 3 18043252538934165372
15351339 4 18338508643673712065
15475509 84 18044362839324961194
16067689 134 17620479004737149409
16067689 302 18339924944121655175
16112460 7 18270692952674145457
17093844 170 18337953497570359080
20554085 129 16443337655961743953
20567600 299 18127410261960719312
20587220 17 17988915682826899877
20715895 44 18410290337216746706
20764821 26 18191017907128259904
21133410 38 17987536852189897241
21298829 104 18343023293835164561
21475661 188 18262798596213605866
21860390 5 18341901822297755174
21987440 362 17829904479122671332
23559900 14 18272083920592152075
24893992 56 18260546758051501851
3298306 158 18125724736120123768
394071 54 18341623602615837913
4066623 53 18263356984874907396
508706 21 18187921850246421565
513532 50 18059585706348938988
5265222 85 17688041120592903140
53794403 172 18261960772796329837
550186 83 17532351227682677512
59755656 215 18411418431657341516

> <PUBCHEM_SHAPE_MULTIPOLES>
615.91
14.9
5.23
1.31
24.49
1.78
0.23
3.73
2.92
-4.94
0.54
-0.41
-0.24
1.15

> <PUBCHEM_SHAPE_SELFOVERLAP>
1316.321

> <PUBCHEM_SHAPE_VOLUME>
342.2

> <PUBCHEM_COORDINATE_TYPE>
2
5
10

$$$$
