28962225
  -OEChem-12032416413D

 57 59  0     1  0  0  0  0  0999 V2000
    7.3575    1.0637   -0.1821 Cl  0  0  0  0  0  0  0  0  0  0  0  0
    1.0282   -2.3934   -1.0061 O   0  0  0  0  0  0  0  0  0  0  0  0
   -0.1799   -3.5212    1.4912 O   0  0  0  0  0  0  0  0  0  0  0  0
    2.6341   -4.6720   -1.3716 O   0  0  0  0  0  0  0  0  0  0  0  0
   -2.1701   -1.6435    0.6336 N   0  0  1  0  0  0  0  0  0  0  0  0
    1.7346    0.1927   -0.0333 N   0  0  0  0  0  0  0  0  0  0  0  0
   -1.2402   -2.2583   -0.2975 C   0  0  1  0  0  0  0  0  0  0  0  0
    0.0045   -1.4359   -0.6550 C   0  0  1  0  0  0  0  0  0  0  0  0
   -0.6549   -3.5879    0.1529 C   0  0  1  0  0  0  0  0  0  0  0  0
    0.5115   -3.7250   -0.8184 C   0  0  2  0  0  0  0  0  0  0  0  0
    0.5753   -0.5467    0.4441 C   0  0  0  0  0  0  0  0  0  0  0  0
    1.6353   -4.6388   -0.3649 C   0  0  0  0  0  0  0  0  0  0  0  0
   -2.9782   -0.6191   -0.0356 C   0  0  0  0  0  0  0  0  0  0  0  0
   -3.0425   -2.6524    1.2428 C   0  0  0  0  0  0  0  0  0  0  0  0
   -3.6206    0.3233    0.9826 C   0  0  0  0  0  0  0  0  0  0  0  0
    2.2862    1.0350    1.0199 C   0  0  0  0  0  0  0  0  0  0  0  0
   -4.4727    1.3690    0.3084 C   0  0  0  0  0  0  0  0  0  0  0  0
    3.4946    1.8006    0.5504 C   0  0  0  0  0  0  0  0  0  0  0  0
   -3.9088    2.5851   -0.0772 C   0  0  0  0  0  0  0  0  0  0  0  0
   -5.8243    1.1203    0.0705 C   0  0  0  0  0  0  0  0  0  0  0  0
    4.7228    1.1529    0.4176 C   0  0  0  0  0  0  0  0  0  0  0  0
    3.3855    3.1579    0.2475 C   0  0  0  0  0  0  0  0  0  0  0  0
   -4.6967    3.5528   -0.7009 C   0  0  0  0  0  0  0  0  0  0  0  0
   -6.6122    2.0877   -0.5532 C   0  0  0  0  0  0  0  0  0  0  0  0
   -6.0484    3.3039   -0.9389 C   0  0  0  0  0  0  0  0  0  0  0  0
    5.8419    1.8624   -0.0179 C   0  0  0  0  0  0  0  0  0  0  0  0
    4.5046    3.8674   -0.1881 C   0  0  0  0  0  0  0  0  0  0  0  0
    5.7329    3.2195   -0.3208 C   0  0  0  0  0  0  0  0  0  0  0  0
   -1.7659   -2.4763   -1.2415 H   0  0  0  0  0  0  0  0  0  0  0  0
   -0.2020   -0.8270   -1.5443 H   0  0  0  0  0  0  0  0  0  0  0  0
   -1.3521   -4.4283    0.0683 H   0  0  0  0  0  0  0  0  0  0  0  0
    0.1486   -4.0446   -1.8038 H   0  0  0  0  0  0  0  0  0  0  0  0
    0.8793   -1.1631    1.2976 H   0  0  0  0  0  0  0  0  0  0  0  0
   -0.1882    0.1597    0.7884 H   0  0  0  0  0  0  0  0  0  0  0  0
    1.2703   -5.6562   -0.1943 H   0  0  0  0  0  0  0  0  0  0  0  0
    2.1122   -4.2631    0.5460 H   0  0  0  0  0  0  0  0  0  0  0  0
   -2.3463   -0.0082   -0.6938 H   0  0  0  0  0  0  0  0  0  0  0  0
   -3.7388   -1.0756   -0.6839 H   0  0  0  0  0  0  0  0  0  0  0  0
   -3.7977   -2.2039    1.8946 H   0  0  0  0  0  0  0  0  0  0  0  0
   -2.5044   -3.3347    1.9060 H   0  0  0  0  0  0  0  0  0  0  0  0
   -3.5752   -3.2440    0.4882 H   0  0  0  0  0  0  0  0  0  0  0  0
    0.0818   -4.4194    1.7556 H   0  0  0  0  0  0  0  0  0  0  0  0
    1.4628    0.7717   -0.8280 H   0  0  0  0  0  0  0  0  0  0  0  0
   -2.8430    0.8179    1.5802 H   0  0  0  0  0  0  0  0  0  0  0  0
   -4.2517   -0.2063    1.7040 H   0  0  0  0  0  0  0  0  0  0  0  0
    2.5815    0.4254    1.8840 H   0  0  0  0  0  0  0  0  0  0  0  0
    1.5257    1.7382    1.3838 H   0  0  0  0  0  0  0  0  0  0  0  0
    3.3377   -5.2655   -1.0577 H   0  0  0  0  0  0  0  0  0  0  0  0
   -2.8564    2.7897    0.1010 H   0  0  0  0  0  0  0  0  0  0  0  0
   -6.2745    0.1758    0.3643 H   0  0  0  0  0  0  0  0  0  0  0  0
    4.8055    0.0945    0.6546 H   0  0  0  0  0  0  0  0  0  0  0  0
    2.4345    3.6749    0.3440 H   0  0  0  0  0  0  0  0  0  0  0  0
   -4.2576    4.4995   -1.0017 H   0  0  0  0  0  0  0  0  0  0  0  0
   -7.6646    1.8938   -0.7392 H   0  0  0  0  0  0  0  0  0  0  0  0
   -6.6619    4.0571   -1.4247 H   0  0  0  0  0  0  0  0  0  0  0  0
    4.4197    4.9241   -0.4245 H   0  0  0  0  0  0  0  0  0  0  0  0
    6.5964    3.7850   -0.6614 H   0  0  0  0  0  0  0  0  0  0  0  0
  1 26  1  0  0  0  0
  2  8  1  0  0  0  0
  2 10  1  0  0  0  0
  3  9  1  0  0  0  0
  3 42  1  0  0  0  0
  4 12  1  0  0  0  0
  4 48  1  0  0  0  0
  5  7  1  0  0  0  0
  5 13  1  0  0  0  0
  5 14  1  0  0  0  0
  6 11  1  0  0  0  0
  6 16  1  0  0  0  0
  6 43  1  0  0  0  0
  7  8  1  0  0  0  0
  7  9  1  0  0  0  0
  7 29  1  0  0  0  0
  8 11  1  0  0  0  0
  8 30  1  0  0  0  0
  9 10  1  0  0  0  0
  9 31  1  0  0  0  0
 10 12  1  0  0  0  0
 10 32  1  0  0  0  0
 11 33  1  0  0  0  0
 11 34  1  0  0  0  0
 12 35  1  0  0  0  0
 12 36  1  0  0  0  0
 13 15  1  0  0  0  0
 13 37  1  0  0  0  0
 13 38  1  0  0  0  0
 14 39  1  0  0  0  0
 14 40  1  0  0  0  0
 14 41  1  0  0  0  0
 15 17  1  0  0  0  0
 15 44  1  0  0  0  0
 15 45  1  0  0  0  0
 16 18  1  0  0  0  0
 16 46  1  0  0  0  0
 16 47  1  0  0  0  0
 17 19  2  0  0  0  0
 17 20  1  0  0  0  0
 18 21  2  0  0  0  0
 18 22  1  0  0  0  0
 19 23  1  0  0  0  0
 19 49  1  0  0  0  0
 20 24  2  0  0  0  0
 20 50  1  0  0  0  0
 21 26  1  0  0  0  0
 21 51  1  0  0  0  0
 22 27  2  0  0  0  0
 22 52  1  0  0  0  0
 23 25  2  0  0  0  0
 23 53  1  0  0  0  0
 24 25  1  0  0  0  0
 24 54  1  0  0  0  0
 25 55  1  0  0  0  0
 26 28  2  0  0  0  0
 27 28  1  0  0  0  0
 27 56  1  0  0  0  0
 28 57  1  0  0  0  0
M  END
> <PUBCHEM_COMPOUND_CID>
28962225

> <PUBCHEM_CONFORMER_RMSD>
1

> <PUBCHEM_CONFORMER_DIVERSEORDER>
1
15
104
2
75
19
108
16
83
72
79
129
70
57
25
80
92
34
132
62
107
128
69
110
86
119
106
44
58
136
102
66
47
94
95
6
112
121
93
100
60
73
10
53
122
140
64
39
48
96
113
43
12
33
126
28
67
40
5
78
134
63
41
35
138
31
9
56
55
137
68
101
103
133
65
135
99
89
61
37
45
109
32
59
74
76
85
36
87
20
130
52
82
124
71
18
22
120
111
127
84
81
29
131
13
117
7
115
98
91
118
49
114
51
50
24
38
42
105
30
46
123
54
139
14
77
21
90
17
11
88
116
27
23
3
125
97
26
8
4

> <PUBCHEM_MMFF94_PARTIAL_CHARGES>
40
1 -0.18
10 0.28
11 0.27
12 0.28
13 0.27
14 0.27
15 0.14
16 0.41
17 -0.14
18 -0.14
19 -0.15
2 -0.56
20 -0.15
21 -0.15
22 -0.15
23 -0.15
24 -0.15
25 -0.15
26 0.18
27 -0.15
28 -0.15
3 -0.68
4 -0.68
42 0.4
43 0.36
48 0.4
49 0.15
5 -0.81
50 0.15
51 0.15
52 0.15
53 0.15
54 0.15
55 0.15
56 0.15
57 0.15
6 -0.9
7 0.27
8 0.28
9 0.28

> <PUBCHEM_EFFECTIVE_ROTOR_COUNT>
10

> <PUBCHEM_PHARMACOPHORE_FEATURES>
11
1 2 acceptor
1 3 acceptor
1 3 donor
1 4 acceptor
1 4 donor
1 5 cation
1 6 cation
1 6 donor
5 2 7 8 9 10 rings
6 17 19 20 23 24 25 rings
6 18 21 22 26 27 28 rings

> <PUBCHEM_HEAVY_ATOM_COUNT>
28

> <PUBCHEM_ATOM_DEF_STEREO_COUNT>
4

> <PUBCHEM_ATOM_UDEF_STEREO_COUNT>
0

> <PUBCHEM_BOND_DEF_STEREO_COUNT>
0

> <PUBCHEM_BOND_UDEF_STEREO_COUNT>
0

> <PUBCHEM_ISOTOPIC_ATOM_COUNT>
0

> <PUBCHEM_COMPONENT_COUNT>
1

> <PUBCHEM_CACTVS_TAUTO_COUNT>
1

> <PUBCHEM_CONFORMER_ID>
01B9EDB100000001

> <PUBCHEM_MMFF94_ENERGY>
72.1581

> <PUBCHEM_FEATURE_SELFOVERLAP>
55.825

> <PUBCHEM_SHAPE_FINGERPRINT>
11763715 3 17038676231954621342
12107183 9 18262223453301628168
13540713 4 18263661605995430803
13590594 115 17476368201504988979
13944108 23 18122903131733776369
14257110 125 18409164424726214857
14347329 18 18339634641747610977
14790565 3 18338236084937889100
14849402 71 18122910832846676955
15198563 99 17909541002647318815
15230672 131 18408888448009081398
15326921 28 18269541896853680376
15419008 42 18131082545509874180
15439362 3 18266740186564825905
15890870 6 18410572894599984653
16988056 13 17977944588031428269
17980427 26 18117822336247578311
19053607 189 18267006289959774937
19246450 95 18338783590679349810
21388113 180 18408604726041963649
21859007 373 18341039805414232984
22889206 1 17969217846126464810
23559900 14 17977943493774661867
2838139 119 18409725192466900245
3388396 114 18128806461809795457
3411729 13 18263358109871651675
4058900 60 18337677421151196969
5219985 13 18339637940224231004
5265222 85 18338799038881102241
53794403 172 18266175042062061721
57124632 79 18339919312564461755
6327066 14 18408317796467343157
6371380 46 18410864235680297574
7288768 16 18113334215728866995
7808743 9 18336541711633917673
9981440 41 18336551611665196003

> <PUBCHEM_SHAPE_MULTIPOLES>
550.53
16.2
7.21
1.03
3.88
6.17
-0.07
-24.99
1.77
1.27
1.77
-0.3
0.57
2.34

> <PUBCHEM_SHAPE_SELFOVERLAP>
1141.428

> <PUBCHEM_SHAPE_VOLUME>
314.9

> <PUBCHEM_COORDINATE_TYPE>
2
5
10

$$$$
