28962345
  -OEChem-12032416143D

 50 51  0     1  0  0  0  0  0999 V2000
   -1.5169   -1.4666    1.1691 O   0  0  0  0  0  0  0  0  0  0  0  0
   -2.7297   -1.3579   -1.5983 O   0  0  0  0  0  0  0  0  0  0  0  0
   -2.2927   -4.1438    1.4781 O   0  0  0  0  0  0  0  0  0  0  0  0
    0.7370   -0.4250   -0.8760 N   0  0  2  0  0  0  0  0  0  0  0  0
   -2.0542    2.0968    0.3504 N   0  0  0  0  0  0  0  0  0  0  0  0
   -0.7209   -0.3169   -0.7825 C   0  0  2  0  0  0  0  0  0  0  0  0
   -1.1374   -0.1630    0.6865 C   0  0  1  0  0  0  0  0  0  0  0  0
   -1.3919   -1.6209   -1.1864 C   0  0  1  0  0  0  0  0  0  0  0  0
   -1.3711   -2.4245    0.1073 C   0  0  2  0  0  0  0  0  0  0  0  0
   -2.3341    0.7636    0.8700 C   0  0  0  0  0  0  0  0  0  0  0  0
   -2.4527   -3.4820    0.2360 C   0  0  0  0  0  0  0  0  0  0  0  0
    1.3780    0.8141   -0.4292 C   0  0  0  0  0  0  0  0  0  0  0  0
    1.1461   -0.7403   -2.2467 C   0  0  0  0  0  0  0  0  0  0  0  0
   -3.2051    2.9725    0.5202 C   0  0  0  0  0  0  0  0  0  0  0  0
    2.8192    0.5956   -0.0526 C   0  0  0  0  0  0  0  0  0  0  0  0
   -4.2374    2.7073   -0.5720 C   0  0  0  0  0  0  0  0  0  0  0  0
   -2.7444    4.4266    0.4975 C   0  0  0  0  0  0  0  0  0  0  0  0
    3.1543    0.2570    1.2584 C   0  0  0  0  0  0  0  0  0  0  0  0
    3.8195    0.7320   -1.0150 C   0  0  0  0  0  0  0  0  0  0  0  0
    4.4897    0.0547    1.6071 C   0  0  0  0  0  0  0  0  0  0  0  0
    5.1549    0.5295   -0.6666 C   0  0  0  0  0  0  0  0  0  0  0  0
    5.4900    0.1911    0.6446 C   0  0  0  0  0  0  0  0  0  0  0  0
   -1.0640    0.5176   -1.4062 H   0  0  0  0  0  0  0  0  0  0  0  0
   -0.3488    0.1654    1.3670 H   0  0  0  0  0  0  0  0  0  0  0  0
   -0.9541   -2.1974   -1.9996 H   0  0  0  0  0  0  0  0  0  0  0  0
   -0.3850   -2.8833    0.2537 H   0  0  0  0  0  0  0  0  0  0  0  0
   -2.5771    0.8090    1.9400 H   0  0  0  0  0  0  0  0  0  0  0  0
   -3.2095    0.3174    0.3860 H   0  0  0  0  0  0  0  0  0  0  0  0
   -2.3810   -4.2177   -0.5708 H   0  0  0  0  0  0  0  0  0  0  0  0
   -3.4511   -3.0332    0.2340 H   0  0  0  0  0  0  0  0  0  0  0  0
    0.9063    1.2951    0.4320 H   0  0  0  0  0  0  0  0  0  0  0  0
    1.3149    1.5849   -1.2118 H   0  0  0  0  0  0  0  0  0  0  0  0
   -1.2493    2.4774    0.8480 H   0  0  0  0  0  0  0  0  0  0  0  0
    2.2319   -0.7915   -2.3520 H   0  0  0  0  0  0  0  0  0  0  0  0
    0.7703   -0.0084   -2.9713 H   0  0  0  0  0  0  0  0  0  0  0  0
    0.8330   -1.7370   -2.5649 H   0  0  0  0  0  0  0  0  0  0  0  0
   -2.6854   -0.8122   -2.4020 H   0  0  0  0  0  0  0  0  0  0  0  0
   -3.6737    2.8083    1.4994 H   0  0  0  0  0  0  0  0  0  0  0  0
   -2.9918   -4.8171    1.5368 H   0  0  0  0  0  0  0  0  0  0  0  0
   -4.6624    1.7012   -0.5047 H   0  0  0  0  0  0  0  0  0  0  0  0
   -5.0712    3.4136   -0.4900 H   0  0  0  0  0  0  0  0  0  0  0  0
   -3.8020    2.8253   -1.5710 H   0  0  0  0  0  0  0  0  0  0  0  0
   -2.2611    4.6804   -0.4529 H   0  0  0  0  0  0  0  0  0  0  0  0
   -2.0316    4.6288    1.3048 H   0  0  0  0  0  0  0  0  0  0  0  0
   -3.5948    5.1041    0.6314 H   0  0  0  0  0  0  0  0  0  0  0  0
    2.3841    0.1457    2.0171 H   0  0  0  0  0  0  0  0  0  0  0  0
    3.5811    1.0184   -2.0357 H   0  0  0  0  0  0  0  0  0  0  0  0
    4.7507   -0.2091    2.6277 H   0  0  0  0  0  0  0  0  0  0  0  0
    5.9344    0.6409   -1.4145 H   0  0  0  0  0  0  0  0  0  0  0  0
    6.5298    0.0348    0.9162 H   0  0  0  0  0  0  0  0  0  0  0  0
  1  7  1  0  0  0  0
  1  9  1  0  0  0  0
  2  8  1  0  0  0  0
  2 37  1  0  0  0  0
  3 11  1  0  0  0  0
  3 39  1  0  0  0  0
  4  6  1  0  0  0  0
  4 12  1  0  0  0  0
  4 13  1  0  0  0  0
  5 10  1  0  0  0  0
  5 14  1  0  0  0  0
  5 33  1  0  0  0  0
  6  7  1  0  0  0  0
  6  8  1  0  0  0  0
  6 23  1  0  0  0  0
  7 10  1  0  0  0  0
  7 24  1  0  0  0  0
  8  9  1  0  0  0  0
  8 25  1  0  0  0  0
  9 11  1  0  0  0  0
  9 26  1  0  0  0  0
 10 27  1  0  0  0  0
 10 28  1  0  0  0  0
 11 29  1  0  0  0  0
 11 30  1  0  0  0  0
 12 15  1  0  0  0  0
 12 31  1  0  0  0  0
 12 32  1  0  0  0  0
 13 34  1  0  0  0  0
 13 35  1  0  0  0  0
 13 36  1  0  0  0  0
 14 16  1  0  0  0  0
 14 17  1  0  0  0  0
 14 38  1  0  0  0  0
 15 18  2  0  0  0  0
 15 19  1  0  0  0  0
 16 40  1  0  0  0  0
 16 41  1  0  0  0  0
 16 42  1  0  0  0  0
 17 43  1  0  0  0  0
 17 44  1  0  0  0  0
 17 45  1  0  0  0  0
 18 20  1  0  0  0  0
 18 46  1  0  0  0  0
 19 21  2  0  0  0  0
 19 47  1  0  0  0  0
 20 22  2  0  0  0  0
 20 48  1  0  0  0  0
 21 22  1  0  0  0  0
 21 49  1  0  0  0  0
 22 50  1  0  0  0  0
M  END
> <PUBCHEM_COMPOUND_CID>
28962345

> <PUBCHEM_CONFORMER_RMSD>
0.8

> <PUBCHEM_CONFORMER_DIVERSEORDER>
2
85
40
12
88
83
4
42
7
72
80
17
22
27
87
46
38
9
69
93
96
92
57
50
48
86
37
70
91
34
47
94
35
75
23
45
73
29
56
1
21
52
68
71
84
39
67
20
54
14
63
5
97
3
13
82
30
81
11
90
32
61
19
16
74
26
62
24
55
58
49
60
36
25
59
66
15
65
89
18
77
51
53
6
78
43
41
79
95
44
64
28
10
76
31
8
33

> <PUBCHEM_MMFF94_PARTIAL_CHARGES>
28
1 -0.56
10 0.27
11 0.28
12 0.41
13 0.27
14 0.27
15 -0.14
18 -0.15
19 -0.15
2 -0.68
20 -0.15
21 -0.15
22 -0.15
3 -0.68
33 0.36
37 0.4
39 0.4
4 -0.81
46 0.15
47 0.15
48 0.15
49 0.15
5 -0.9
50 0.15
6 0.27
7 0.28
8 0.28
9 0.28

> <PUBCHEM_EFFECTIVE_ROTOR_COUNT>
8

> <PUBCHEM_PHARMACOPHORE_FEATURES>
11
1 1 acceptor
1 2 acceptor
1 2 donor
1 3 acceptor
1 3 donor
1 4 cation
1 5 cation
1 5 donor
3 14 16 17 hydrophobe
5 1 6 7 8 9 rings
6 15 18 19 20 21 22 rings

> <PUBCHEM_HEAVY_ATOM_COUNT>
22

> <PUBCHEM_ATOM_DEF_STEREO_COUNT>
4

> <PUBCHEM_ATOM_UDEF_STEREO_COUNT>
0

> <PUBCHEM_BOND_DEF_STEREO_COUNT>
0

> <PUBCHEM_BOND_UDEF_STEREO_COUNT>
0

> <PUBCHEM_ISOTOPIC_ATOM_COUNT>
0

> <PUBCHEM_COMPONENT_COUNT>
1

> <PUBCHEM_CACTVS_TAUTO_COUNT>
1

> <PUBCHEM_CONFORMER_ID>
01B9EE2900000002

> <PUBCHEM_MMFF94_ENERGY>
54.967

> <PUBCHEM_FEATURE_SELFOVERLAP>
55.824

> <PUBCHEM_SHAPE_FINGERPRINT>
11725454 13 17845361163986549620
12077114 3 18343306942070224468
12107183 9 18118959192794464506
121448 382 18342450414396999549
12500047 106 18342738481937409152
12596599 1 17895184528952040882
12788726 201 18189627205386643819
13052359 8 18409728452557795153
13583140 156 17918269883694285602
13955234 65 17401219876466989745
14178342 30 18335709355567194430
15163728 17 18053953848466860057
15842332 3 17677629703444592220
17093844 174 18131627886350419800
173720 79 18263632996764110401
17980427 26 17763456223619566085
20600515 1 17768553907503097551
20681651 13 17531790468282986968
21033648 29 18196948681491386696
212916 134 18268698429495293000
21304303 282 18267281185166803055
21524375 3 18126281944040159701
22182313 1 17702966776111476270
23402539 116 18342449379177701031
23419403 2 13395205683111924189
23503958 8 18336260241231606330
23558518 356 18339359669514792991
23559900 14 17680408237952402710
23598288 3 18339086019804543300
376196 1 17772746065945348292
4938544 92 18340758309157325432
56616090 46 18196943171406366692
57124632 79 17761777256532368889
59755656 520 18338229341485897868
7226269 152 18337385045958698551
77188 2 17833837449235896787
81228 2 18127155132640436835
84936 182 17623856725451693217
90316 7 18124889094698909611
9981440 41 17988915635470937566

> <PUBCHEM_SHAPE_MULTIPOLES>
425.18
9.29
4.37
1.59
11.86
0.42
0.3
-5.72
-1.38
-9.2
-1.37
0.59
0.68
0.17

> <PUBCHEM_SHAPE_SELFOVERLAP>
866.293

> <PUBCHEM_SHAPE_VOLUME>
248.1

> <PUBCHEM_COORDINATE_TYPE>
2
5
10

$$$$
