86769018
  -OEChem-12032416343D

 38 40  0     1  0  0  0  0  0999 V2000
   -4.9960   -0.3678   -0.1344 O   0  0  0  0  0  0  0  0  0  0  0  0
    4.0261    1.5310    0.3390 O   0  0  0  0  0  0  0  0  0  0  0  0
   -0.8470    0.2563   -0.2856 N   0  0  1  0  0  0  0  0  0  0  0  0
    1.9399    0.6343   -0.2635 N   0  0  0  0  0  0  0  0  0  0  0  0
    3.6466   -0.7833    0.0853 N   0  0  0  0  0  0  0  0  0  0  0  0
    1.4105   -0.6658   -0.6184 C   0  0  2  0  0  0  0  0  0  0  0  0
    0.0434   -0.8788    0.0308 C   0  0  0  0  0  0  0  0  0  0  0  0
   -2.1755    0.0335    0.2801 C   0  0  0  0  0  0  0  0  0  0  0  0
   -0.2810    1.5253    0.2149 C   0  0  0  0  0  0  0  0  0  0  0  0
    1.0955    1.8033   -0.3945 C   0  0  0  0  0  0  0  0  0  0  0  0
    2.4970   -1.6369   -0.1607 C   0  0  0  0  0  0  0  0  0  0  0  0
   -2.7547   -1.3065   -0.1841 C   0  0  0  0  0  0  0  0  0  0  0  0
   -3.1185    1.1753   -0.1096 C   0  0  0  0  0  0  0  0  0  0  0  0
    3.2970    0.5820    0.0817 C   0  0  0  0  0  0  0  0  0  0  0  0
   -4.1904   -1.4612    0.3056 C   0  0  0  0  0  0  0  0  0  0  0  0
   -4.5341    0.8830    0.3758 C   0  0  0  0  0  0  0  0  0  0  0  0
    4.9411   -1.3236    0.4377 C   0  0  0  0  0  0  0  0  0  0  0  0
    1.3240   -0.6878   -1.7129 H   0  0  0  0  0  0  0  0  0  0  0  0
   -0.3219   -1.8241   -0.3795 H   0  0  0  0  0  0  0  0  0  0  0  0
    0.1446   -0.9941    1.1183 H   0  0  0  0  0  0  0  0  0  0  0  0
   -2.1105    0.0062    1.3781 H   0  0  0  0  0  0  0  0  0  0  0  0
   -0.1968    1.5010    1.3095 H   0  0  0  0  0  0  0  0  0  0  0  0
   -0.8922    2.3896   -0.0562 H   0  0  0  0  0  0  0  0  0  0  0  0
    1.0072    2.0218   -1.4650 H   0  0  0  0  0  0  0  0  0  0  0  0
    1.5780    2.6595    0.0877 H   0  0  0  0  0  0  0  0  0  0  0  0
    2.2447   -2.1481    0.7741 H   0  0  0  0  0  0  0  0  0  0  0  0
    2.7379   -2.3770   -0.9296 H   0  0  0  0  0  0  0  0  0  0  0  0
   -2.2012   -2.1649    0.2074 H   0  0  0  0  0  0  0  0  0  0  0  0
   -2.7432   -1.3574   -1.2806 H   0  0  0  0  0  0  0  0  0  0  0  0
   -3.1318    1.2892   -1.2014 H   0  0  0  0  0  0  0  0  0  0  0  0
   -2.8305    2.1341    0.3301 H   0  0  0  0  0  0  0  0  0  0  0  0
   -4.6257   -2.3797   -0.1009 H   0  0  0  0  0  0  0  0  0  0  0  0
   -4.2350   -1.5298    1.3990 H   0  0  0  0  0  0  0  0  0  0  0  0
   -4.5873    0.8719    1.4709 H   0  0  0  0  0  0  0  0  0  0  0  0
   -5.2180    1.6601    0.0198 H   0  0  0  0  0  0  0  0  0  0  0  0
    5.2743   -1.9921   -0.3603 H   0  0  0  0  0  0  0  0  0  0  0  0
    4.8459   -1.8816    1.3729 H   0  0  0  0  0  0  0  0  0  0  0  0
    5.6656   -0.5161    0.5689 H   0  0  0  0  0  0  0  0  0  0  0  0
  1 15  1  0  0  0  0
  1 16  1  0  0  0  0
  2 14  2  0  0  0  0
  3  7  1  0  0  0  0
  3  8  1  0  0  0  0
  3  9  1  0  0  0  0
  4  6  1  0  0  0  0
  4 10  1  0  0  0  0
  4 14  1  0  0  0  0
  5 11  1  0  0  0  0
  5 14  1  0  0  0  0
  5 17  1  0  0  0  0
  6  7  1  0  0  0  0
  6 11  1  0  0  0  0
  6 18  1  0  0  0  0
  7 19  1  0  0  0  0
  7 20  1  0  0  0  0
  8 12  1  0  0  0  0
  8 13  1  0  0  0  0
  8 21  1  0  0  0  0
  9 10  1  0  0  0  0
  9 22  1  0  0  0  0
  9 23  1  0  0  0  0
 10 24  1  0  0  0  0
 10 25  1  0  0  0  0
 11 26  1  0  0  0  0
 11 27  1  0  0  0  0
 12 15  1  0  0  0  0
 12 28  1  0  0  0  0
 12 29  1  0  0  0  0
 13 16  1  0  0  0  0
 13 30  1  0  0  0  0
 13 31  1  0  0  0  0
 15 32  1  0  0  0  0
 15 33  1  0  0  0  0
 16 34  1  0  0  0  0
 16 35  1  0  0  0  0
 17 36  1  0  0  0  0
 17 37  1  0  0  0  0
 17 38  1  0  0  0  0
M  END
> <PUBCHEM_COMPOUND_CID>
86769018

> <PUBCHEM_CONFORMER_RMSD>
0.6

> <PUBCHEM_CONFORMER_DIVERSEORDER>
1
6
11
8
3
4
2
5
9
7
10

> <PUBCHEM_MMFF94_PARTIAL_CHARGES>
15
1 -0.56
10 0.3
11 0.3
14 0.69
15 0.28
16 0.28
17 0.3
2 -0.57
3 -0.81
4 -0.66
5 -0.66
6 0.3
7 0.27
8 0.27
9 0.27

> <PUBCHEM_EFFECTIVE_ROTOR_COUNT>
3.4

> <PUBCHEM_PHARMACOPHORE_FEATURES>
6
1 1 acceptor
1 2 acceptor
1 3 cation
5 4 5 6 11 14 rings
6 1 8 12 13 15 16 rings
6 3 4 6 7 9 10 rings

> <PUBCHEM_HEAVY_ATOM_COUNT>
17

> <PUBCHEM_ATOM_DEF_STEREO_COUNT>
1

> <PUBCHEM_ATOM_UDEF_STEREO_COUNT>
0

> <PUBCHEM_BOND_DEF_STEREO_COUNT>
0

> <PUBCHEM_BOND_UDEF_STEREO_COUNT>
0

> <PUBCHEM_ISOTOPIC_ATOM_COUNT>
0

> <PUBCHEM_COMPONENT_COUNT>
1

> <PUBCHEM_CACTVS_TAUTO_COUNT>
1

> <PUBCHEM_CONFORMER_ID>
052BFD7A00000001

> <PUBCHEM_MMFF94_ENERGY>
35.9387

> <PUBCHEM_FEATURE_SELFOVERLAP>
30.542

> <PUBCHEM_SHAPE_FINGERPRINT>
10062212 137 18413102875165574119
11471102 20 18410291423600872708
11806522 49 18337670927175968975
12032990 46 18410014316816833646
12251169 10 18342457027913295559
13167823 11 18409446990128558187
13675066 3 18260552233807424881
13690532 89 18408041801330247187
14115302 16 17313396637746649350
14252887 29 17988933232136487758
15196674 1 18411138047527775897
15375358 24 18272091582618784991
15442244 35 18339083692116988569
15536298 74 18342177773603293476
15788980 27 17458344130708050469
1813 80 17167863062575399028
18186145 218 17749103391903626135
18522853 276 18341896303217144161
19050596 39 18413108346584501179
19141452 34 18410857659884737951
200 152 18130783491142200063
20281475 54 18261395576226378877
20645477 70 18341895168987296526
21267235 1 18411145714060639262
21452121 103 18271515490492699696
21501925 9 18410854377796403220
221490 88 18190187960632817275
22485316 2 18410574002610888681
23402539 116 18340761563882562575
23463225 33 18410295821610467077
23559900 14 18411697669176993976
26918003 58 18412542085332588067
335352 9 18338235951266142349
42 15 18408324375908288887
4214541 1 18410575055041640361
4921388 177 16081663274201988243
5104073 3 18411420617795007465
5374978 207 18413666907424218144
69090 78 18412824690218253743
77779 3 18411139138686897875
8809292 202 18260272970860386003
9709674 26 18337680801290419363
9971528 1 18040715878997539916
9981440 41 17398671693080647025

> <PUBCHEM_SHAPE_MULTIPOLES>
323.17
10
1.87
0.68
1.78
0.17
0
-2.13
-1.37
-0.43
-0.02
-0.04
-0.01
-0.07

> <PUBCHEM_SHAPE_SELFOVERLAP>
669.245

> <PUBCHEM_SHAPE_VOLUME>
186

> <PUBCHEM_COORDINATE_TYPE>
2
5
10

$$$$
