75367100
  -OEChem-12032416393D

 47 48  0     1  0  0  0  0  0999 V2000
    0.0459    0.7360   -1.0244 O   0  0  0  0  0  0  0  0  0  0  0  0
   -0.9213   -2.1089    0.9444 O   0  0  0  0  0  0  0  0  0  0  0  0
    3.6083   -1.0042    1.0681 O   0  0  0  0  0  0  0  0  0  0  0  0
   -3.2882   -0.6139   -0.4835 N   0  0  0  0  0  0  0  0  0  0  0  0
    2.7050   -0.3589   -0.9726 N   0  0  0  0  0  0  0  0  0  0  0  0
    4.7090    0.5421   -0.2666 N   0  0  0  0  0  0  0  0  0  0  0  0
   -4.2922    0.3546   -0.0816 C   0  0  0  0  0  0  0  0  0  0  0  0
   -1.9541   -0.1677   -0.1162 C   0  0  1  0  0  0  0  0  0  0  0  0
   -0.9048   -1.2615   -0.1879 C   0  0  1  0  0  0  0  0  0  0  0  0
   -5.5980    0.2048   -0.8530 C   0  0  0  0  0  0  0  0  0  0  0  0
   -4.7439    0.1710    1.3623 C   0  0  0  0  0  0  0  0  0  0  0  0
    0.3734   -0.4374   -0.2616 C   0  0  1  0  0  0  0  0  0  0  0  0
   -6.6098    0.9649    0.0005 C   0  0  0  0  0  0  0  0  0  0  0  0
   -6.0594    0.9422    1.4293 C   0  0  0  0  0  0  0  0  0  0  0  0
   -1.3861    0.8579   -1.0836 C   0  0  0  0  0  0  0  0  0  0  0  0
    1.5254   -1.1738   -0.9218 C   0  0  0  0  0  0  0  0  0  0  0  0
    3.6703   -0.3341    0.0382 C   0  0  0  0  0  0  0  0  0  0  0  0
    5.8356    0.7554    0.6110 C   0  0  0  0  0  0  0  0  0  0  0  0
    6.3454    2.1847    0.4801 C   0  0  0  0  0  0  0  0  0  0  0  0
    6.9394   -0.2534    0.3190 C   0  0  0  0  0  0  0  0  0  0  0  0
   -3.9393    1.3842   -0.2312 H   0  0  0  0  0  0  0  0  0  0  0  0
   -1.9506    0.2340    0.9065 H   0  0  0  0  0  0  0  0  0  0  0  0
   -1.0334   -1.8735   -1.0894 H   0  0  0  0  0  0  0  0  0  0  0  0
   -5.8966   -0.8492   -0.9222 H   0  0  0  0  0  0  0  0  0  0  0  0
   -5.5350    0.6022   -1.8711 H   0  0  0  0  0  0  0  0  0  0  0  0
   -4.0170    0.5456    2.0896 H   0  0  0  0  0  0  0  0  0  0  0  0
   -4.9321   -0.8860    1.5906 H   0  0  0  0  0  0  0  0  0  0  0  0
   -3.4850   -1.5200   -0.0602 H   0  0  0  0  0  0  0  0  0  0  0  0
    0.6776   -0.1021    0.7388 H   0  0  0  0  0  0  0  0  0  0  0  0
   -7.6038    0.5105   -0.0606 H   0  0  0  0  0  0  0  0  0  0  0  0
   -6.6996    2.0010   -0.3456 H   0  0  0  0  0  0  0  0  0  0  0  0
   -5.8841    1.9675    1.7750 H   0  0  0  0  0  0  0  0  0  0  0  0
   -6.7602    0.4750    2.1284 H   0  0  0  0  0  0  0  0  0  0  0  0
   -1.6838    0.6624   -2.1202 H   0  0  0  0  0  0  0  0  0  0  0  0
   -1.6706    1.8837   -0.8310 H   0  0  0  0  0  0  0  0  0  0  0  0
    1.2795   -1.4229   -1.9598 H   0  0  0  0  0  0  0  0  0  0  0  0
    1.7496   -2.1014   -0.3845 H   0  0  0  0  0  0  0  0  0  0  0  0
   -0.8100   -1.5599    1.7389 H   0  0  0  0  0  0  0  0  0  0  0  0
    2.8380    0.2425   -1.7798 H   0  0  0  0  0  0  0  0  0  0  0  0
    4.7082    0.9934   -1.1764 H   0  0  0  0  0  0  0  0  0  0  0  0
    5.4972    0.6038    1.6431 H   0  0  0  0  0  0  0  0  0  0  0  0
    6.6918    2.3926   -0.5385 H   0  0  0  0  0  0  0  0  0  0  0  0
    5.5507    2.9028    0.7105 H   0  0  0  0  0  0  0  0  0  0  0  0
    7.1776    2.3685    1.1675 H   0  0  0  0  0  0  0  0  0  0  0  0
    7.3012   -0.1583   -0.7110 H   0  0  0  0  0  0  0  0  0  0  0  0
    6.5768   -1.2792    0.4463 H   0  0  0  0  0  0  0  0  0  0  0  0
    7.7895   -0.1101    0.9941 H   0  0  0  0  0  0  0  0  0  0  0  0
  1 12  1  0  0  0  0
  1 15  1  0  0  0  0
  2  9  1  0  0  0  0
  2 38  1  0  0  0  0
  3 17  2  0  0  0  0
  4  7  1  0  0  0  0
  4  8  1  0  0  0  0
  4 28  1  0  0  0  0
  5 16  1  0  0  0  0
  5 17  1  0  0  0  0
  5 39  1  0  0  0  0
  6 17  1  0  0  0  0
  6 18  1  0  0  0  0
  6 40  1  0  0  0  0
  7 10  1  0  0  0  0
  7 11  1  0  0  0  0
  7 21  1  0  0  0  0
  8  9  1  0  0  0  0
  8 15  1  0  0  0  0
  8 22  1  0  0  0  0
  9 12  1  0  0  0  0
  9 23  1  0  0  0  0
 10 13  1  0  0  0  0
 10 24  1  0  0  0  0
 10 25  1  0  0  0  0
 11 14  1  0  0  0  0
 11 26  1  0  0  0  0
 11 27  1  0  0  0  0
 12 16  1  0  0  0  0
 12 29  1  0  0  0  0
 13 14  1  0  0  0  0
 13 30  1  0  0  0  0
 13 31  1  0  0  0  0
 14 32  1  0  0  0  0
 14 33  1  0  0  0  0
 15 34  1  0  0  0  0
 15 35  1  0  0  0  0
 16 36  1  0  0  0  0
 16 37  1  0  0  0  0
 18 19  1  0  0  0  0
 18 20  1  0  0  0  0
 18 41  1  0  0  0  0
 19 42  1  0  0  0  0
 19 43  1  0  0  0  0
 19 44  1  0  0  0  0
 20 45  1  0  0  0  0
 20 46  1  0  0  0  0
 20 47  1  0  0  0  0
M  END
> <PUBCHEM_COMPOUND_CID>
75367100

> <PUBCHEM_CONFORMER_RMSD>
1

> <PUBCHEM_CONFORMER_DIVERSEORDER>
1
66
93
70
103
18
36
92
41
112
68
28
51
2
99
59
44
10
84
48
53
15
47
56
95
80
79
63
101
98
29
5
8
19
35
77
76
40
32
100
34
45
20
91
69
26
97
24
33
30
13
85
46
22
7
104
3
106
60
90
109
57
81
14
65
105
50
75
17
49
52
4
9
107
96
72
27
86
83
25
54
6
88
82
78
111
23
71
87
61
89
58
110
37
73
16
94
21
74
108
64
62
67
39
31
11
38
42
55
43
12
102

> <PUBCHEM_MMFF94_PARTIAL_CHARGES>
18
1 -0.56
12 0.28
15 0.28
16 0.3
17 0.69
18 0.3
2 -0.68
28 0.36
3 -0.57
38 0.4
39 0.37
4 -0.9
40 0.37
5 -0.73
6 -0.73
7 0.27
8 0.27
9 0.28

> <PUBCHEM_EFFECTIVE_ROTOR_COUNT>
9

> <PUBCHEM_PHARMACOPHORE_FEATURES>
11
1 1 acceptor
1 2 acceptor
1 2 donor
1 3 acceptor
1 4 cation
1 4 donor
1 5 donor
1 6 donor
3 18 19 20 hydrophobe
5 1 8 9 12 15 rings
5 7 10 11 13 14 rings

> <PUBCHEM_HEAVY_ATOM_COUNT>
20

> <PUBCHEM_ATOM_DEF_STEREO_COUNT>
3

> <PUBCHEM_ATOM_UDEF_STEREO_COUNT>
0

> <PUBCHEM_BOND_DEF_STEREO_COUNT>
0

> <PUBCHEM_BOND_UDEF_STEREO_COUNT>
0

> <PUBCHEM_ISOTOPIC_ATOM_COUNT>
0

> <PUBCHEM_COMPONENT_COUNT>
1

> <PUBCHEM_CACTVS_TAUTO_COUNT>
3

> <PUBCHEM_CONFORMER_ID>
047E02BC00000001

> <PUBCHEM_MMFF94_ENERGY>
25.3539

> <PUBCHEM_FEATURE_SELFOVERLAP>
55.87

> <PUBCHEM_SHAPE_FINGERPRINT>
10 15 17603864533721325156
10087517 78 17917715660977753841
106641 1 18261397784446146211
10670039 82 13614250256174313891
10906281 52 18270134494728520468
11524674 6 16153429458745211931
117890 112 18202284705867351364
12236239 1 16702303438121225623
12596602 18 18408888434153339875
12616971 3 16733269044429947958
12670543 26 11599731653269875563
13167372 99 18060703858156112096
13288520 33 12324244966943558735
13533116 47 18261107414603358090
13668630 136 10231753392511325417
13685833 64 12251901495223477380
14123256 10 13686297972082476185
14251752 14 13901909981738620804
14251764 18 18336547204875444357
14347332 77 10015324402918817428
14350574 20 8142084256127211318
14528608 73 15985099712894731835
15048467 5 17846780693753839145
15183329 4 13326862123504524672
15348495 7 17313393382224866193
15706992 2 17845671325350472105
15716309 27 13840266991808682641
17834072 8 13326852236104817432
17834076 25 17561362876661619550
17980427 23 18263643021011928502
18222031 100 10015577273128792551
200 152 11674874490010214062
20281389 69 18411697677714473280
20526848 3 17917998277808772192
20567600 247 12035446163964469425
21150785 3 14261346959972098773
21267235 1 17167864128555430494
21637258 2 13262396699979255241
221357 26 11384117445086835114
2215653 11 11095885977865613540
22224240 67 18333450946035912291
23035841 295 10737287944252608389
23081809 10 17060052614920231639
23402539 116 18260823825959126655
23622692 88 17385724707761551926
246663 6 10952043477616854341
26918003 58 16225768514801088063
2838139 119 17346596374209869977
2916195 48 18411700980723451113
300161 21 18412542106934246071
351380 3 11674875615128297056
4340502 62 16877660158648167946
465052 167 11819000668675278352
5104073 3 17605567740892323320
559249 180 13190337977024441521
59682541 35 17531252793706070881
59682541 52 14907634380695257292
59755656 520 18272364278614115566

> <PUBCHEM_SHAPE_MULTIPOLES>
379.04
18.94
1.48
1.16
8.34
0.18
0.15
9.73
3.93
1.22
0.23
-0.88
0
-0.26

> <PUBCHEM_SHAPE_SELFOVERLAP>
757.527

> <PUBCHEM_SHAPE_VOLUME>
226.9

> <PUBCHEM_COORDINATE_TYPE>
2
5
10

$$$$
