45784429
  -OEChem-12032416133D

 74 77  0     1  0  0  0  0  0999 V2000
   10.4958    0.8306    0.2151 F   0  0  0  0  0  0  0  0  0  0  0  0
   -1.2005    2.3429   -1.5384 O   0  0  0  0  0  0  0  0  0  0  0  0
   -6.1694    2.1562    0.4227 O   0  0  0  0  0  0  0  0  0  0  0  0
    4.3731   -1.5454   -0.6051 O   0  0  0  0  0  0  0  0  0  0  0  0
    3.4575    0.3405    0.3684 N   0  0  0  0  0  0  0  0  0  0  0  0
   -5.4875    0.9303   -1.4244 N   0  0  0  0  0  0  0  0  0  0  0  0
    5.7363    0.2011    0.1706 N   0  0  0  0  0  0  0  0  0  0  0  0
   -0.7097   -0.0927    1.3604 C   0  0  1  0  0  0  0  0  0  0  0  0
   -0.3699    0.6865    0.0463 C   0  0  2  0  0  0  0  0  0  0  0  0
    1.1302    1.1526    0.0449 C   0  0  1  0  0  0  0  0  0  0  0  0
   -1.4169    1.8025   -0.2340 C   0  0  2  0  0  0  0  0  0  0  0  0
   -2.1567   -0.6338    1.2797 C   0  0  0  0  0  0  0  0  0  0  0  0
    0.2401   -1.3062    1.4870 C   0  0  0  0  0  0  0  0  0  0  0  0
   -2.8702    1.2741   -0.2101 C   0  0  1  0  0  0  0  0  0  0  0  0
    2.0732   -0.0665    0.2482 C   0  0  2  0  0  0  0  0  0  0  0  0
   -3.1885    0.4613    1.0446 C   0  0  0  0  0  0  0  0  0  0  0  0
    1.7117   -0.9181    1.4648 C   0  0  0  0  0  0  0  0  0  0  0  0
   -0.5788    0.7919    2.6261 C   0  0  0  0  0  0  0  0  0  0  0  0
   -3.8909    2.4092   -0.3580 C   0  0  2  0  0  0  0  0  0  0  0  0
    1.5410    1.9021   -1.2338 C   0  0  0  0  0  0  0  0  0  0  0  0
   -3.7245    3.4156    0.7752 C   0  0  0  0  0  0  0  0  0  0  0  0
   -5.3045    1.8365   -0.3900 C   0  0  0  0  0  0  0  0  0  0  0  0
    4.5226   -0.4463   -0.0767 C   0  0  0  0  0  0  0  0  0  0  0  0
   -6.7423    0.2539   -1.6578 C   0  0  0  0  0  0  0  0  0  0  0  0
    7.0409   -0.2570   -0.1274 C   0  0  0  0  0  0  0  0  0  0  0  0
   -6.8271   -1.0462   -0.9114 C   0  0  0  0  0  0  0  0  0  0  0  0
    8.1468    0.5287    0.1968 C   0  0  0  0  0  0  0  0  0  0  0  0
    7.2216   -1.4952   -0.7440 C   0  0  0  0  0  0  0  0  0  0  0  0
   -6.3813   -2.2245   -1.5099 C   0  0  0  0  0  0  0  0  0  0  0  0
   -7.3519   -1.0753    0.3805 C   0  0  0  0  0  0  0  0  0  0  0  0
    9.4334    0.0765   -0.0954 C   0  0  0  0  0  0  0  0  0  0  0  0
    8.5085   -1.9475   -1.0361 C   0  0  0  0  0  0  0  0  0  0  0  0
   -6.4604   -3.4323   -0.8165 C   0  0  0  0  0  0  0  0  0  0  0  0
   -7.4310   -2.2830    1.0741 C   0  0  0  0  0  0  0  0  0  0  0  0
    9.6144   -1.1615   -0.7119 C   0  0  0  0  0  0  0  0  0  0  0  0
   -6.9853   -3.4615    0.4754 C   0  0  0  0  0  0  0  0  0  0  0  0
   -0.4548   -0.0260   -0.7900 H   0  0  0  0  0  0  0  0  0  0  0  0
    1.2838    1.8557    0.8734 H   0  0  0  0  0  0  0  0  0  0  0  0
   -1.2470    2.6068    0.4837 H   0  0  0  0  0  0  0  0  0  0  0  0
   -2.4118   -1.1754    2.1998 H   0  0  0  0  0  0  0  0  0  0  0  0
   -2.2329   -1.3655    0.4639 H   0  0  0  0  0  0  0  0  0  0  0  0
    0.0297   -1.8588    2.4115 H   0  0  0  0  0  0  0  0  0  0  0  0
    0.0547   -2.0072    0.6620 H   0  0  0  0  0  0  0  0  0  0  0  0
   -2.9658    0.5953   -1.0681 H   0  0  0  0  0  0  0  0  0  0  0  0
    1.9924   -0.7065   -0.6413 H   0  0  0  0  0  0  0  0  0  0  0  0
   -4.1656   -0.0270    0.9554 H   0  0  0  0  0  0  0  0  0  0  0  0
   -3.2429    1.0777    1.9444 H   0  0  0  0  0  0  0  0  0  0  0  0
    1.9758   -0.3892    2.3887 H   0  0  0  0  0  0  0  0  0  0  0  0
    2.3182   -1.8331    1.4711 H   0  0  0  0  0  0  0  0  0  0  0  0
    0.4414    1.1473    2.7919 H   0  0  0  0  0  0  0  0  0  0  0  0
   -0.8691    0.2288    3.5210 H   0  0  0  0  0  0  0  0  0  0  0  0
   -1.2129    1.6817    2.5828 H   0  0  0  0  0  0  0  0  0  0  0  0
   -3.7389    2.9317   -1.3113 H   0  0  0  0  0  0  0  0  0  0  0  0
    1.0783    2.8920   -1.2772 H   0  0  0  0  0  0  0  0  0  0  0  0
    2.6200    2.0830   -1.2731 H   0  0  0  0  0  0  0  0  0  0  0  0
    1.2670    1.3374   -2.1309 H   0  0  0  0  0  0  0  0  0  0  0  0
    3.6658    1.1991    0.8690 H   0  0  0  0  0  0  0  0  0  0  0  0
   -1.2935    1.6216   -2.1839 H   0  0  0  0  0  0  0  0  0  0  0  0
   -3.8855    2.9995    1.7723 H   0  0  0  0  0  0  0  0  0  0  0  0
   -4.4782    4.2065    0.6650 H   0  0  0  0  0  0  0  0  0  0  0  0
   -2.7618    3.9311    0.7546 H   0  0  0  0  0  0  0  0  0  0  0  0
   -4.7376    0.7582   -2.0862 H   0  0  0  0  0  0  0  0  0  0  0  0
    5.6847    1.1127    0.6183 H   0  0  0  0  0  0  0  0  0  0  0  0
   -7.5717    0.9123   -1.3735 H   0  0  0  0  0  0  0  0  0  0  0  0
   -6.8290    0.0834   -2.7369 H   0  0  0  0  0  0  0  0  0  0  0  0
    8.0202    1.4953    0.6775 H   0  0  0  0  0  0  0  0  0  0  0  0
    6.4168   -2.1594   -1.0253 H   0  0  0  0  0  0  0  0  0  0  0  0
   -5.9684   -2.2144   -2.5151 H   0  0  0  0  0  0  0  0  0  0  0  0
   -7.7058   -0.1661    0.8585 H   0  0  0  0  0  0  0  0  0  0  0  0
    8.6508   -2.9114   -1.5162 H   0  0  0  0  0  0  0  0  0  0  0  0
   -6.1127   -4.3498   -1.2822 H   0  0  0  0  0  0  0  0  0  0  0  0
   -7.8400   -2.3059    2.0799 H   0  0  0  0  0  0  0  0  0  0  0  0
   10.6163   -1.5133   -0.9394 H   0  0  0  0  0  0  0  0  0  0  0  0
   -7.0468   -4.4018    1.0155 H   0  0  0  0  0  0  0  0  0  0  0  0
  1 31  1  0  0  0  0
  2 11  1  0  0  0  0
  2 58  1  0  0  0  0
  3 22  2  0  0  0  0
  4 23  2  0  0  0  0
  5 15  1  0  0  0  0
  5 23  1  0  0  0  0
  5 57  1  0  0  0  0
  6 22  1  0  0  0  0
  6 24  1  0  0  0  0
  6 62  1  0  0  0  0
  7 23  1  0  0  0  0
  7 25  1  0  0  0  0
  7 63  1  0  0  0  0
  8  9  1  0  0  0  0
  8 12  1  0  0  0  0
  8 13  1  0  0  0  0
  8 18  1  0  0  0  0
  9 10  1  0  0  0  0
  9 11  1  0  0  0  0
  9 37  1  0  0  0  0
 10 15  1  0  0  0  0
 10 20  1  0  0  0  0
 10 38  1  0  0  0  0
 11 14  1  0  0  0  0
 11 39  1  0  0  0  0
 12 16  1  0  0  0  0
 12 40  1  0  0  0  0
 12 41  1  0  0  0  0
 13 17  1  0  0  0  0
 13 42  1  0  0  0  0
 13 43  1  0  0  0  0
 14 16  1  0  0  0  0
 14 19  1  0  0  0  0
 14 44  1  0  0  0  0
 15 17  1  0  0  0  0
 15 45  1  0  0  0  0
 16 46  1  0  0  0  0
 16 47  1  0  0  0  0
 17 48  1  0  0  0  0
 17 49  1  0  0  0  0
 18 50  1  0  0  0  0
 18 51  1  0  0  0  0
 18 52  1  0  0  0  0
 19 21  1  0  0  0  0
 19 22  1  0  0  0  0
 19 53  1  0  0  0  0
 20 54  1  0  0  0  0
 20 55  1  0  0  0  0
 20 56  1  0  0  0  0
 21 59  1  0  0  0  0
 21 60  1  0  0  0  0
 21 61  1  0  0  0  0
 24 26  1  0  0  0  0
 24 64  1  0  0  0  0
 24 65  1  0  0  0  0
 25 27  2  0  0  0  0
 25 28  1  0  0  0  0
 26 29  2  0  0  0  0
 26 30  1  0  0  0  0
 27 31  1  0  0  0  0
 27 66  1  0  0  0  0
 28 32  2  0  0  0  0
 28 67  1  0  0  0  0
 29 33  1  0  0  0  0
 29 68  1  0  0  0  0
 30 34  2  0  0  0  0
 30 69  1  0  0  0  0
 31 35  2  0  0  0  0
 32 35  1  0  0  0  0
 32 70  1  0  0  0  0
 33 36  2  0  0  0  0
 33 71  1  0  0  0  0
 34 36  1  0  0  0  0
 34 72  1  0  0  0  0
 35 73  1  0  0  0  0
 36 74  1  0  0  0  0
M  END
> <PUBCHEM_COMPOUND_CID>
45784429

> <PUBCHEM_CONFORMER_RMSD>
1.2

> <PUBCHEM_CONFORMER_DIVERSEORDER>
2
88
71
136
148
63
124
82
122
164
142
62
107
29
84
68
160
147
75
144
113
129
66
165
121
69
23
168
116
30
49
174
155
91
97
53
18
169
40
1
127
67
5
178
102
36
101
19
172
177
58
151
90
47
37
92
125
162
96
104
126
141
170
56
119
152
87
173
143
158
131
34
54
65
134
171
85
149
146
76
150
105
156
109
98
48
103
175
157
117
163
50
73
11
57
21
78
135
176
38
70
133
43
106
10
72
154
41
167
114
139
153
45
95
13
77
118
55
17
94
140
138
132
27
111
81
86
110
108
26
8
4
112
33
166
9
12
137
59
115
100
80
60
25
64
74
39
159
24
31
61
99
128
130
46
93
32
52
3
79
83
14
120
145
123
35
6
22
161
15
44
51
16
89
42
7
20
28

> <PUBCHEM_MMFF94_PARTIAL_CHARGES>
38
1 -0.19
11 0.28
15 0.3
19 0.06
2 -0.68
22 0.57
23 0.69
24 0.44
25 0.12
26 -0.14
27 -0.15
28 -0.15
29 -0.15
3 -0.57
30 -0.15
31 0.19
32 -0.15
33 -0.15
34 -0.15
35 -0.15
36 -0.15
4 -0.57
5 -0.73
57 0.37
58 0.4
6 -0.73
62 0.37
63 0.37
66 0.15
67 0.15
68 0.15
69 0.15
7 -0.55
70 0.15
71 0.15
72 0.15
73 0.15
74 0.15

> <PUBCHEM_EFFECTIVE_ROTOR_COUNT>
10.6

> <PUBCHEM_PHARMACOPHORE_FEATURES>
12
1 2 acceptor
1 2 donor
1 21 hydrophobe
1 3 acceptor
1 4 acceptor
1 5 donor
1 6 donor
1 7 donor
6 25 27 28 31 32 35 rings
6 26 29 30 33 34 36 rings
6 8 9 10 13 15 17 rings
6 8 9 11 12 14 16 rings

> <PUBCHEM_HEAVY_ATOM_COUNT>
36

> <PUBCHEM_ATOM_DEF_STEREO_COUNT>
6

> <PUBCHEM_ATOM_UDEF_STEREO_COUNT>
1

> <PUBCHEM_BOND_DEF_STEREO_COUNT>
0

> <PUBCHEM_BOND_UDEF_STEREO_COUNT>
0

> <PUBCHEM_ISOTOPIC_ATOM_COUNT>
0

> <PUBCHEM_COMPONENT_COUNT>
1

> <PUBCHEM_CACTVS_TAUTO_COUNT>
6

> <PUBCHEM_CONFORMER_ID>
02BA9D6D00000002

> <PUBCHEM_MMFF94_ENERGY>
103.4908

> <PUBCHEM_FEATURE_SELFOVERLAP>
60.964

> <PUBCHEM_SHAPE_FINGERPRINT>
10076449 9 18060701710144741906
10554248 39 15936406702493344466
10577160 183 15285632213946556056
11135926 11 16515688814280627289
11456790 92 11455882573326995526
11477941 20 16732693944804980573
11973863 73 14333135135048837662
12082328 90 18272650117224409452
12104220 1 17203897357896410907
12664476 115 12324246053702082703
1361 4 18340201878036370631
13782708 43 18202559588359699115
13811026 1 18333735741032677768
13947947 19 17530972405920296340
14040221 310 17312817178851689293
14150023 24 13190337972529437224
14202775 3 18201160946073749582
14279260 333 18260546732498326523
150020 25 18411973667764661476
15392192 29 18411981374302099567
15461852 350 18408608063151859854
1577012 14 17822005363669140448
17324776 126 15693458824264189399
17686467 74 18343014506574890704
18603816 31 16845287298264759607
20982279 24 16845031030482511182
21792961 116 17632295653562553582
21792965 68 10737271451378283823
21867018 265 18412545448313554350
21927370 108 16773804688039760976
22288116 15 18114180848172351755
23576562 1 16154284942884223991
249057 3 17022912246422231316
354706 132 16443055120366091519
395649 100 18334294279696438139
4169191 19 13045934686420657845
4330586 98 18338230596091050079
437795 160 18410845578199737594
44280117 145 18412266151064279293
44426701 170 18119245310510847323
45377200 153 18342175575055675070
4625314 4 18411697660371418437
484989 97 18261114135983972715
54039377 194 18334297609134849499
54583773 228 18335987571111802524
6201320 215 11169901780479882783
6673363 416 18413392038603964136
6691757 9 16805615754038230912
999808 66 17989204854679618263

> <PUBCHEM_SHAPE_MULTIPOLES>
701.04
31.09
3.22
1.55
61.99
0.52
-0.37
18.1
8.65
-7.9
0.44
-1.58
0.06
0.8

> <PUBCHEM_SHAPE_SELFOVERLAP>
1483.029

> <PUBCHEM_SHAPE_VOLUME>
390

> <PUBCHEM_COORDINATE_TYPE>
2
5
10

$$$$
