7127963
  -OEChem-12032416343D

 69 71  0     1  0  0  0  0  0999 V2000
   -1.8870    0.9012   -1.0101 O   0  0  0  0  0  0  0  0  0  0  0  0
   -4.7654    0.3547   -0.1087 O   0  0  0  0  0  0  0  0  0  0  0  0
    1.9999   -1.5515    2.1190 O   0  0  0  0  0  0  0  0  0  0  0  0
   -0.1962    5.7111   -0.8685 O   0  0  0  0  0  0  0  0  0  0  0  0
   -1.1738    5.1427    1.1327 O   0  0  0  0  0  0  0  0  0  0  0  0
    7.8225   -1.6454   -0.7879 O   0  0  0  0  0  0  0  0  0  0  0  0
   -2.9308   -0.6949    0.8160 N   0  0  0  0  0  0  0  0  0  0  0  0
    0.1853   -1.3091    0.7066 N   0  0  0  0  0  0  0  0  0  0  0  0
   -1.1367    2.4700    0.5382 N   0  0  0  0  0  0  0  0  0  0  0  0
   -5.0405   -2.3878   -1.4442 N   0  0  0  0  0  0  0  0  0  0  0  0
    2.2959   -1.3584   -0.2018 N   0  0  0  0  0  0  0  0  0  0  0  0
   -2.3113    0.5268    1.3093 C   0  0  1  0  0  0  0  0  0  0  0  0
   -0.8299   -1.3387    1.7289 C   0  0  1  0  0  0  0  0  0  0  0  0
   -1.1902    0.0605    2.2360 C   0  0  0  0  0  0  0  0  0  0  0  0
   -2.1531   -1.8769    1.1950 C   0  0  0  0  0  0  0  0  0  0  0  0
   -1.7725    1.3028    0.1449 C   0  0  0  0  0  0  0  0  0  0  0  0
   -4.1740   -0.6873    0.1770 C   0  0  0  0  0  0  0  0  0  0  0  0
   -0.5136    3.3822   -0.3887 C   0  0  2  0  0  0  0  0  0  0  0  0
   -4.7336   -1.9873   -0.1699 C   0  0  0  0  0  0  0  0  0  0  0  0
    0.9676    3.0346   -0.6533 C   0  0  0  0  0  0  0  0  0  0  0  0
    1.5545   -1.4199    0.9814 C   0  0  0  0  0  0  0  0  0  0  0  0
   -0.6712    4.8315    0.0576 C   0  0  0  0  0  0  0  0  0  0  0  0
   -5.0498   -3.0201    0.6847 C   0  0  0  0  0  0  0  0  0  0  0  0
    1.7281    2.8120    0.6575 C   0  0  0  0  0  0  0  0  0  0  0  0
    1.1501    1.8243   -1.5754 C   0  0  0  0  0  0  0  0  0  0  0  0
   -5.5471   -3.6610   -1.4158 C   0  0  0  0  0  0  0  0  0  0  0  0
   -5.5647   -4.0790   -0.1035 C   0  0  0  0  0  0  0  0  0  0  0  0
   -4.8626   -1.6016   -2.6452 C   0  0  0  0  0  0  0  0  0  0  0  0
    3.7005   -1.4328   -0.3510 C   0  0  0  0  0  0  0  0  0  0  0  0
    4.2724   -1.3519   -1.6207 C   0  0  0  0  0  0  0  0  0  0  0  0
    4.5139   -1.5859    0.7718 C   0  0  0  0  0  0  0  0  0  0  0  0
   -0.3090    7.0966   -0.5266 C   0  0  0  0  0  0  0  0  0  0  0  0
    5.6576   -1.4240   -1.7676 C   0  0  0  0  0  0  0  0  0  0  0  0
    5.8990   -1.6581    0.6250 C   0  0  0  0  0  0  0  0  0  0  0  0
    6.4709   -1.5771   -0.6448 C   0  0  0  0  0  0  0  0  0  0  0  0
    8.5945   -1.8022    0.4018 C   0  0  0  0  0  0  0  0  0  0  0  0
   -3.0547    1.1411    1.8297 H   0  0  0  0  0  0  0  0  0  0  0  0
   -0.4607   -1.9658    2.5479 H   0  0  0  0  0  0  0  0  0  0  0  0
   -1.5997   -0.0353    3.2504 H   0  0  0  0  0  0  0  0  0  0  0  0
   -0.3254    0.7260    2.2962 H   0  0  0  0  0  0  0  0  0  0  0  0
   -2.6947   -2.3796    2.0027 H   0  0  0  0  0  0  0  0  0  0  0  0
   -2.0488   -2.5614    0.3474 H   0  0  0  0  0  0  0  0  0  0  0  0
   -0.1014   -1.1454   -0.2536 H   0  0  0  0  0  0  0  0  0  0  0  0
   -1.1139    2.7120    1.5247 H   0  0  0  0  0  0  0  0  0  0  0  0
   -1.0699    3.3117   -1.3331 H   0  0  0  0  0  0  0  0  0  0  0  0
    1.4455    3.8803   -1.1642 H   0  0  0  0  0  0  0  0  0  0  0  0
   -4.9425   -3.0167    1.7606 H   0  0  0  0  0  0  0  0  0  0  0  0
    2.8003    2.7034    0.4589 H   0  0  0  0  0  0  0  0  0  0  0  0
    1.4027    1.9038    1.1731 H   0  0  0  0  0  0  0  0  0  0  0  0
    1.6057    3.6601    1.3388 H   0  0  0  0  0  0  0  0  0  0  0  0
    0.7660    0.9098   -1.1213 H   0  0  0  0  0  0  0  0  0  0  0  0
    0.6294    1.9795   -2.5258 H   0  0  0  0  0  0  0  0  0  0  0  0
    2.2108    1.6658   -1.7981 H   0  0  0  0  0  0  0  0  0  0  0  0
    1.7699   -1.2534   -1.0655 H   0  0  0  0  0  0  0  0  0  0  0  0
   -5.8547   -4.1647   -2.3223 H   0  0  0  0  0  0  0  0  0  0  0  0
   -5.9144   -5.0399    0.2469 H   0  0  0  0  0  0  0  0  0  0  0  0
   -5.0321   -2.2312   -3.5224 H   0  0  0  0  0  0  0  0  0  0  0  0
   -3.8396   -1.2170   -2.6635 H   0  0  0  0  0  0  0  0  0  0  0  0
   -5.5856   -0.7823   -2.6289 H   0  0  0  0  0  0  0  0  0  0  0  0
    3.6498   -1.2312   -2.5035 H   0  0  0  0  0  0  0  0  0  0  0  0
    4.1450   -1.6554    1.7853 H   0  0  0  0  0  0  0  0  0  0  0  0
    0.1056    7.6845   -1.3498 H   0  0  0  0  0  0  0  0  0  0  0  0
    0.2638    7.3102    0.3808 H   0  0  0  0  0  0  0  0  0  0  0  0
   -1.3603    7.3696   -0.3945 H   0  0  0  0  0  0  0  0  0  0  0  0
    6.0975   -1.3596   -2.7591 H   0  0  0  0  0  0  0  0  0  0  0  0
    6.4726   -1.7767    1.5380 H   0  0  0  0  0  0  0  0  0  0  0  0
    9.6469   -1.8389    0.1016 H   0  0  0  0  0  0  0  0  0  0  0  0
    8.3723   -2.7500    0.9038 H   0  0  0  0  0  0  0  0  0  0  0  0
    8.4828   -0.9419    1.0704 H   0  0  0  0  0  0  0  0  0  0  0  0
  1 16  2  0  0  0  0
  2 17  2  0  0  0  0
  3 21  2  0  0  0  0
  4 22  1  0  0  0  0
  4 32  1  0  0  0  0
  5 22  2  0  0  0  0
  6 35  1  0  0  0  0
  6 36  1  0  0  0  0
  7 12  1  0  0  0  0
  7 15  1  0  0  0  0
  7 17  1  0  0  0  0
  8 13  1  0  0  0  0
  8 21  1  0  0  0  0
  8 43  1  0  0  0  0
  9 16  1  0  0  0  0
  9 18  1  0  0  0  0
  9 44  1  0  0  0  0
 10 19  1  0  0  0  0
 10 26  1  0  0  0  0
 10 28  1  0  0  0  0
 11 21  1  0  0  0  0
 11 29  1  0  0  0  0
 11 54  1  0  0  0  0
 12 14  1  0  0  0  0
 12 16  1  0  0  0  0
 12 37  1  0  0  0  0
 13 14  1  0  0  0  0
 13 15  1  0  0  0  0
 13 38  1  0  0  0  0
 14 39  1  0  0  0  0
 14 40  1  0  0  0  0
 15 41  1  0  0  0  0
 15 42  1  0  0  0  0
 17 19  1  0  0  0  0
 18 20  1  0  0  0  0
 18 22  1  0  0  0  0
 18 45  1  0  0  0  0
 19 23  2  0  0  0  0
 20 24  1  0  0  0  0
 20 25  1  0  0  0  0
 20 46  1  0  0  0  0
 23 27  1  0  0  0  0
 23 47  1  0  0  0  0
 24 48  1  0  0  0  0
 24 49  1  0  0  0  0
 24 50  1  0  0  0  0
 25 51  1  0  0  0  0
 25 52  1  0  0  0  0
 25 53  1  0  0  0  0
 26 27  2  0  0  0  0
 26 55  1  0  0  0  0
 27 56  1  0  0  0  0
 28 57  1  0  0  0  0
 28 58  1  0  0  0  0
 28 59  1  0  0  0  0
 29 30  2  0  0  0  0
 29 31  1  0  0  0  0
 30 33  1  0  0  0  0
 30 60  1  0  0  0  0
 31 34  2  0  0  0  0
 31 61  1  0  0  0  0
 32 62  1  0  0  0  0
 32 63  1  0  0  0  0
 32 64  1  0  0  0  0
 33 35  2  0  0  0  0
 33 65  1  0  0  0  0
 34 35  1  0  0  0  0
 34 66  1  0  0  0  0
 36 67  1  0  0  0  0
 36 68  1  0  0  0  0
 36 69  1  0  0  0  0
M  END
> <PUBCHEM_COMPOUND_CID>
7127963

> <PUBCHEM_CONFORMER_RMSD>
1.2

> <PUBCHEM_CONFORMER_DIVERSEORDER>
1
57
52
16
26
69
4
34
13
46
12
70
58
48
62
28
65
72
17
43
32
68
39
29
18
63
42
19
40
73
10
6
5
53
47
15
67
31
49
7
27
54
41
61
3
74
35
55
36
59
60
21
23
25
33
51
37
24
2
45
44
20
66
11
56
8
71
30
9
64
38
14
50
22

> <PUBCHEM_MMFF94_PARTIAL_CHARGES>
42
1 -0.57
10 0.05
11 -0.55
12 0.36
13 0.3
15 0.3
16 0.57
17 0.71
18 0.36
19 -0.24
2 -0.57
21 0.69
22 0.66
23 -0.15
26 -0.3
27 -0.15
28 0.26
29 0.12
3 -0.57
30 -0.15
31 -0.15
32 0.28
33 -0.15
34 -0.15
35 0.08
36 0.28
4 -0.43
43 0.37
44 0.37
47 0.15
5 -0.57
54 0.37
55 0.15
56 0.15
6 -0.36
60 0.15
61 0.15
65 0.15
66 0.15
7 -0.66
8 -0.73
9 -0.73

> <PUBCHEM_EFFECTIVE_ROTOR_COUNT>
14

> <PUBCHEM_PHARMACOPHORE_FEATURES>
13
1 1 acceptor
1 10 cation
1 11 donor
1 2 acceptor
1 3 acceptor
1 5 acceptor
1 6 acceptor
1 8 donor
1 9 donor
3 20 24 25 hydrophobe
5 10 19 23 26 27 rings
5 7 12 13 14 15 rings
6 29 30 31 33 34 35 rings

> <PUBCHEM_HEAVY_ATOM_COUNT>
36

> <PUBCHEM_ATOM_DEF_STEREO_COUNT>
3

> <PUBCHEM_ATOM_UDEF_STEREO_COUNT>
0

> <PUBCHEM_BOND_DEF_STEREO_COUNT>
0

> <PUBCHEM_BOND_UDEF_STEREO_COUNT>
0

> <PUBCHEM_ISOTOPIC_ATOM_COUNT>
0

> <PUBCHEM_COMPONENT_COUNT>
1

> <PUBCHEM_CACTVS_TAUTO_COUNT>
6

> <PUBCHEM_CONFORMER_ID>
006CC39B00000001

> <PUBCHEM_MMFF94_ENERGY>
95.4468

> <PUBCHEM_FEATURE_SELFOVERLAP>
66.024

> <PUBCHEM_SHAPE_FINGERPRINT>
10937287 8 17327461320154588616
10940486 97 18343866619917741587
11477941 20 18411978049105790964
11488393 25 17906463477980182795
11513181 2 18048605824426562470
11607047 141 18122917679890392299
12645989 146 18340213999351919166
12788726 201 18117557327889903545
12988421 55 8790614731910393887
13757389 114 18197500628387162881
13782708 43 17917711271637481066
14068700 675 18334016081805934068
14556957 393 18187941563882677302
14659021 117 18336548209940308032
15198563 99 18411697651770408573
15444296 121 18412831253603229609
15461852 350 18411425003986121622
15876981 60 18334865978181237285
17686467 74 18343297103107394810
18681886 176 18339074994724552722
20721686 56 18335987566895702968
20775438 99 17689985061408958727
21344244 246 18122906696534759978
21927370 108 18337127712423648483
22899556 105 18049738600301544807
23559900 14 18192429895154914035
249057 3 18411982451990782911
3388396 114 18191046666894302676
4015057 19 18189342436191363243
4017518 198 17476636959501456328
4280585 95 18411698794205731091
5969126 39 18411417285444035222
6058803 2 17680980791585307954
6608658 132 18335421214695719474
6669772 16 17474108078192675701
6673363 416 18412272744867915548
6700243 42 17914363237081338334
999808 66 16056885723614675102

> <PUBCHEM_SHAPE_MULTIPOLES>
680.74
15.9
7.73
1.84
23.6
19.41
-0.24
-27.01
-5.34
-4.78
-1.44
-0.73
-0.83
-1.15

> <PUBCHEM_SHAPE_SELFOVERLAP>
1430.192

> <PUBCHEM_SHAPE_VOLUME>
385.1

> <PUBCHEM_COORDINATE_TYPE>
2
5
10

$$$$
