75537017
  -OEChem-12032416313D

 50 53  0     1  0  0  0  0  0999 V2000
   -3.4517   -1.0498    1.0991 S   0  0  0  0  0  0  0  0  0  0  0  0
    2.2559   -1.2870   -2.3848 O   0  0  0  0  0  0  0  0  0  0  0  0
   -3.3711   -0.7879    2.5195 O   0  0  0  0  0  0  0  0  0  0  0  0
   -4.3859   -2.0198    0.5705 O   0  0  0  0  0  0  0  0  0  0  0  0
    2.5777   -0.4573   -0.2013 N   0  0  0  0  0  0  0  0  0  0  0  0
    0.6414   -1.4864   -0.6897 N   0  0  0  0  0  0  0  0  0  0  0  0
   -1.8837   -1.4102    0.5083 N   0  0  2  0  0  0  0  0  0  0  0  0
    0.5588   -1.2124    0.7321 C   0  0  1  0  0  0  0  0  0  0  0  0
    3.8834    0.1458   -0.3173 C   0  0  0  0  0  0  0  0  0  0  0  0
    1.7780   -0.3341    1.0048 C   0  0  0  0  0  0  0  0  0  0  0  0
   -0.7790   -0.5650    1.0729 C   0  0  0  0  0  0  0  0  0  0  0  0
    3.8138    1.6481   -0.0307 C   0  0  0  0  0  0  0  0  0  0  0  0
    4.8811   -0.5524    0.6098 C   0  0  0  0  0  0  0  0  0  0  0  0
    1.8739   -1.1036   -1.2364 C   0  0  0  0  0  0  0  0  0  0  0  0
   -0.4438   -2.1859   -1.3495 C   0  0  0  0  0  0  0  0  0  0  0  0
   -1.7781   -1.5436   -0.9832 C   0  0  0  0  0  0  0  0  0  0  0  0
    5.1939    2.2971   -0.0948 C   0  0  0  0  0  0  0  0  0  0  0  0
    6.2598    0.1000    0.5464 C   0  0  0  0  0  0  0  0  0  0  0  0
    6.1875    1.5980    0.8287 C   0  0  0  0  0  0  0  0  0  0  0  0
   -3.7424    0.4870    0.2810 C   0  0  0  0  0  0  0  0  0  0  0  0
   -4.3449    0.5042   -0.9769 C   0  0  0  0  0  0  0  0  0  0  0  0
   -3.3661    1.6837    0.8906 C   0  0  0  0  0  0  0  0  0  0  0  0
   -4.5711    1.7184   -1.6254 C   0  0  0  0  0  0  0  0  0  0  0  0
   -3.5924    2.8979    0.2423 C   0  0  0  0  0  0  0  0  0  0  0  0
   -4.1949    2.9152   -1.0158 C   0  0  0  0  0  0  0  0  0  0  0  0
    0.6599   -2.1768    1.2463 H   0  0  0  0  0  0  0  0  0  0  0  0
    4.2244    0.0077   -1.3515 H   0  0  0  0  0  0  0  0  0  0  0  0
    1.4948    0.7138    1.1420 H   0  0  0  0  0  0  0  0  0  0  0  0
    2.3293   -0.6819    1.8820 H   0  0  0  0  0  0  0  0  0  0  0  0
   -0.8683   -0.4859    2.1606 H   0  0  0  0  0  0  0  0  0  0  0  0
   -0.8326    0.4399    0.6397 H   0  0  0  0  0  0  0  0  0  0  0  0
    3.1424    2.1379   -0.7464 H   0  0  0  0  0  0  0  0  0  0  0  0
    3.3999    1.8370    0.9673 H   0  0  0  0  0  0  0  0  0  0  0  0
    4.5338   -0.5227    1.6495 H   0  0  0  0  0  0  0  0  0  0  0  0
    4.9642   -1.6127    0.3413 H   0  0  0  0  0  0  0  0  0  0  0  0
   -0.4114   -3.2258   -1.0050 H   0  0  0  0  0  0  0  0  0  0  0  0
   -0.2836   -2.1805   -2.4320 H   0  0  0  0  0  0  0  0  0  0  0  0
   -1.8280   -0.5543   -1.4500 H   0  0  0  0  0  0  0  0  0  0  0  0
   -2.5896   -2.1662   -1.3718 H   0  0  0  0  0  0  0  0  0  0  0  0
    5.1173    3.3554    0.1794 H   0  0  0  0  0  0  0  0  0  0  0  0
    5.5661    2.2607   -1.1261 H   0  0  0  0  0  0  0  0  0  0  0  0
    6.6945   -0.0632   -0.4474 H   0  0  0  0  0  0  0  0  0  0  0  0
    6.9287   -0.3797    1.2697 H   0  0  0  0  0  0  0  0  0  0  0  0
    7.1808    2.0445    0.7072 H   0  0  0  0  0  0  0  0  0  0  0  0
    5.8902    1.7583    1.8724 H   0  0  0  0  0  0  0  0  0  0  0  0
   -4.6449   -0.4150   -1.4719 H   0  0  0  0  0  0  0  0  0  0  0  0
   -2.8923    1.6942    1.8680 H   0  0  0  0  0  0  0  0  0  0  0  0
   -5.0396    1.7320   -2.6051 H   0  0  0  0  0  0  0  0  0  0  0  0
   -3.2984    3.8299    0.7163 H   0  0  0  0  0  0  0  0  0  0  0  0
   -4.3706    3.8606   -1.5207 H   0  0  0  0  0  0  0  0  0  0  0  0
  1  3  2  0  0  0  0
  1  4  2  0  0  0  0
  1  7  1  0  0  0  0
  1 20  1  0  0  0  0
  2 14  2  0  0  0  0
  5  9  1  0  0  0  0
  5 10  1  0  0  0  0
  5 14  1  0  0  0  0
  6  8  1  0  0  0  0
  6 14  1  0  0  0  0
  6 15  1  0  0  0  0
  7 11  1  0  0  0  0
  7 16  1  0  0  0  0
  8 10  1  0  0  0  0
  8 11  1  0  0  0  0
  8 26  1  0  0  0  0
  9 12  1  0  0  0  0
  9 13  1  0  0  0  0
  9 27  1  0  0  0  0
 10 28  1  0  0  0  0
 10 29  1  0  0  0  0
 11 30  1  0  0  0  0
 11 31  1  0  0  0  0
 12 17  1  0  0  0  0
 12 32  1  0  0  0  0
 12 33  1  0  0  0  0
 13 18  1  0  0  0  0
 13 34  1  0  0  0  0
 13 35  1  0  0  0  0
 15 16  1  0  0  0  0
 15 36  1  0  0  0  0
 15 37  1  0  0  0  0
 16 38  1  0  0  0  0
 16 39  1  0  0  0  0
 17 19  1  0  0  0  0
 17 40  1  0  0  0  0
 17 41  1  0  0  0  0
 18 19  1  0  0  0  0
 18 42  1  0  0  0  0
 18 43  1  0  0  0  0
 19 44  1  0  0  0  0
 19 45  1  0  0  0  0
 20 21  2  0  0  0  0
 20 22  1  0  0  0  0
 21 23  1  0  0  0  0
 21 46  1  0  0  0  0
 22 24  2  0  0  0  0
 22 47  1  0  0  0  0
 23 25  2  0  0  0  0
 23 48  1  0  0  0  0
 24 25  1  0  0  0  0
 24 49  1  0  0  0  0
 25 50  1  0  0  0  0
M  END
> <PUBCHEM_COMPOUND_CID>
75537017

> <PUBCHEM_CONFORMER_RMSD>
0.8

> <PUBCHEM_CONFORMER_DIVERSEORDER>
1
9
37
7
45
3
5
41
35
23
44
48
49
12
38
31
15
42
30
21
16
36
25
6
20
10
8
22
39
17
34
19
27
26
11
13
18
46
43
29
32
28
24
14
47
2
4
40
33

> <PUBCHEM_MMFF94_PARTIAL_CHARGES>
25
1 1.45
10 0.3
11 0.36
14 0.69
15 0.3
16 0.36
2 -0.57
20 -0.01
21 -0.15
22 -0.15
23 -0.15
24 -0.15
25 -0.15
3 -0.65
4 -0.65
46 0.15
47 0.15
48 0.15
49 0.15
5 -0.66
50 0.15
6 -0.66
7 -0.85
8 0.3
9 0.3

> <PUBCHEM_EFFECTIVE_ROTOR_COUNT>
5.4

> <PUBCHEM_PHARMACOPHORE_FEATURES>
7
1 2 acceptor
1 3 acceptor
1 4 acceptor
5 5 6 8 10 14 rings
6 20 21 22 23 24 25 rings
6 6 7 8 11 15 16 rings
6 9 12 13 17 18 19 rings

> <PUBCHEM_HEAVY_ATOM_COUNT>
25

> <PUBCHEM_ATOM_DEF_STEREO_COUNT>
1

> <PUBCHEM_ATOM_UDEF_STEREO_COUNT>
0

> <PUBCHEM_BOND_DEF_STEREO_COUNT>
0

> <PUBCHEM_BOND_UDEF_STEREO_COUNT>
0

> <PUBCHEM_ISOTOPIC_ATOM_COUNT>
0

> <PUBCHEM_COMPONENT_COUNT>
1

> <PUBCHEM_CACTVS_TAUTO_COUNT>
1

> <PUBCHEM_CONFORMER_ID>
04809A7900000001

> <PUBCHEM_MMFF94_ENERGY>
41.2154

> <PUBCHEM_FEATURE_SELFOVERLAP>
35.638

> <PUBCHEM_SHAPE_FINGERPRINT>
10291535 26 18408602544309061425
10498660 4 18339362946870030909
105312 117 17988924478771306742
10675989 125 17255673102302984365
10763959 59 18412551998961392556
10928967 22 9294995843502377316
11370993 144 17676199144190619770
12107183 9 17971741178309656722
12107698 1 18261671601026864377
12422481 6 18333728010113001644
12596602 18 17096084817864332536
12633257 1 14923951145286580018
12892183 10 17967819374614695618
12969540 114 16487254400420937270
13103583 49 12829496887444641557
13257819 101 18273213119118365084
13402501 40 18410005516292532141
13583140 156 18260268550927614563
13911987 19 17703791439696709529
13941219 33 8286207196935567437
13965767 371 17170394001299107525
14123255 352 18410290302783291388
14251740 79 10879995782544990676
14251764 38 18334862735566116908
14739800 52 18187631475638798072
14957384 54 18335693932059513976
15209294 21 17385721374492247163
15537594 2 14476968874033720687
17780758 139 11746936456330195813
17844677 252 18260553359278669674
19489759 90 17894911853809068027
20775530 9 10086762967542331853
21315764 268 18335418001843910548
21401589 2 18263086531296254105
21403212 168 10954010418325353925
21859007 373 18342449298048621252
22950370 63 8502365663748994084
22956985 138 16673607594114279899
23379529 103 12102690126419241269
23559900 14 18125726690731813094
2838139 119 18339070510741271948
312425 83 17415562008760024469
341906 21 18113907056353829844
3737641 26 8141813823817958408
4015057 19 15410604943707354162
4144715 1 18261401052790119210
484985 159 8286206071933775669
5081480 168 17272324299745726172
5104073 3 17676482818100623418
5486654 36 11458696188621024662
7237137 82 17417238974276767519
8863177 126 10809642418966985948
9981440 41 18186804639253890571

> <PUBCHEM_SHAPE_MULTIPOLES>
485.79
13.83
2.86
1.65
13.71
1.57
-0.14
8.91
1.38
-2.35
-0.56
-1.14
-0.55
1.64

> <PUBCHEM_SHAPE_SELFOVERLAP>
1016.146

> <PUBCHEM_SHAPE_VOLUME>
275.4

> <PUBCHEM_COORDINATE_TYPE>
2
5
10

$$$$
