7135154
  -OEChem-12032416133D

 69 72  0     1  0  0  0  0  0999 V2000
    0.6904    2.8479    0.2515 S   0  0  0  0  0  0  0  0  0  0  0  0
   -6.7816    0.6455   -0.7210 O   0  0  0  0  0  0  0  0  0  0  0  0
   -6.4211    2.3711    0.9028 O   0  0  0  0  0  0  0  0  0  0  0  0
    0.7177   -2.1131   -1.6070 O   0  0  0  0  0  0  0  0  0  0  0  0
    3.9764   -0.3598   -0.2762 O   0  0  0  0  0  0  0  0  0  0  0  0
    5.5857    2.7618    0.2283 O   0  0  0  0  0  0  0  0  0  0  0  0
    1.1463    0.3284   -0.1183 N   0  0  0  0  0  0  0  0  0  0  0  0
    0.9885   -3.7908   -0.0284 N   0  0  0  0  0  0  0  0  0  0  0  0
    3.0717    1.7687    0.0496 N   0  0  0  0  0  0  0  0  0  0  0  0
   -2.6403   -0.2822    0.2778 C   0  0  2  0  0  0  0  0  0  0  0  0
   -3.0131    1.1430   -0.3264 C   0  0  1  0  0  0  0  0  0  0  0  0
   -4.5372    1.5491   -0.3147 C   0  0  1  0  0  0  0  0  0  0  0  0
   -1.1715   -0.6617   -0.2244 C   0  0  1  0  0  0  0  0  0  0  0  0
   -3.6312   -1.3462   -0.2617 C   0  0  0  0  0  0  0  0  0  0  0  0
   -5.3885    0.3585   -0.8398 C   0  0  1  0  0  0  0  0  0  0  0  0
   -2.0641    2.2541    0.2102 C   0  0  0  0  0  0  0  0  0  0  0  0
   -5.0950   -0.9534   -0.1206 C   0  0  0  0  0  0  0  0  0  0  0  0
   -2.6778   -0.3077    1.8257 C   0  0  0  0  0  0  0  0  0  0  0  0
   -0.2244    0.4985   -0.0553 C   0  0  0  0  0  0  0  0  0  0  0  0
   -5.0595    2.0381    1.0543 C   0  0  0  0  0  0  0  0  0  0  0  0
   -4.7525    2.7384   -1.2931 C   0  0  0  0  0  0  0  0  0  0  0  0
   -0.6462    1.8007    0.1202 C   0  0  0  0  0  0  0  0  0  0  0  0
   -0.6000   -1.9473    0.3886 C   0  0  0  0  0  0  0  0  0  0  0  0
    0.4222   -2.6083   -0.5162 C   0  0  0  0  0  0  0  0  0  0  0  0
    1.7292    1.4970    0.0382 C   0  0  0  0  0  0  0  0  0  0  0  0
    0.6224   -4.3583    1.2672 C   0  0  0  0  0  0  0  0  0  0  0  0
    1.9867   -4.5457   -0.7762 C   0  0  0  0  0  0  0  0  0  0  0  0
    4.1313    0.8471   -0.1053 C   0  0  0  0  0  0  0  0  0  0  0  0
   -0.5420   -5.3192    1.1430 C   0  0  0  0  0  0  0  0  0  0  0  0
    3.3919   -4.0877   -0.4446 C   0  0  0  0  0  0  0  0  0  0  0  0
    5.4826    1.4266   -0.0015 C   0  0  0  0  0  0  0  0  0  0  0  0
    6.7301    0.8548   -0.0958 C   0  0  0  0  0  0  0  0  0  0  0  0
    7.6594    1.9063    0.0879 C   0  0  0  0  0  0  0  0  0  0  0  0
    6.9136    3.0458    0.2815 C   0  0  0  0  0  0  0  0  0  0  0  0
   -2.7710    1.0471   -1.3993 H   0  0  0  0  0  0  0  0  0  0  0  0
   -1.2606   -0.8016   -1.3121 H   0  0  0  0  0  0  0  0  0  0  0  0
   -3.4890   -2.3062    0.2474 H   0  0  0  0  0  0  0  0  0  0  0  0
   -3.4288   -1.5312   -1.3250 H   0  0  0  0  0  0  0  0  0  0  0  0
   -5.1859    0.2208   -1.9103 H   0  0  0  0  0  0  0  0  0  0  0  0
   -2.1868    3.1703   -0.3772 H   0  0  0  0  0  0  0  0  0  0  0  0
   -2.2958    2.4971    1.2525 H   0  0  0  0  0  0  0  0  0  0  0  0
   -5.3921   -0.8937    0.9322 H   0  0  0  0  0  0  0  0  0  0  0  0
   -5.7222   -1.7473   -0.5464 H   0  0  0  0  0  0  0  0  0  0  0  0
   -2.3899   -1.2912    2.2134 H   0  0  0  0  0  0  0  0  0  0  0  0
   -3.6709   -0.1238    2.2304 H   0  0  0  0  0  0  0  0  0  0  0  0
   -1.9959    0.4198    2.2745 H   0  0  0  0  0  0  0  0  0  0  0  0
   -4.5254    2.9285    1.3994 H   0  0  0  0  0  0  0  0  0  0  0  0
   -5.0003    1.2780    1.8291 H   0  0  0  0  0  0  0  0  0  0  0  0
   -4.2901    3.6594   -0.9231 H   0  0  0  0  0  0  0  0  0  0  0  0
   -5.8136    2.9563   -1.4588 H   0  0  0  0  0  0  0  0  0  0  0  0
   -4.3186    2.5210   -2.2760 H   0  0  0  0  0  0  0  0  0  0  0  0
   -1.3985   -2.6709    0.5532 H   0  0  0  0  0  0  0  0  0  0  0  0
   -0.1310   -1.7090    1.3495 H   0  0  0  0  0  0  0  0  0  0  0  0
   -7.2704   -0.1034   -1.1027 H   0  0  0  0  0  0  0  0  0  0  0  0
   -6.7400    2.6871    1.7652 H   0  0  0  0  0  0  0  0  0  0  0  0
    3.3103    2.7470    0.1922 H   0  0  0  0  0  0  0  0  0  0  0  0
    1.4919   -4.8821    1.6817 H   0  0  0  0  0  0  0  0  0  0  0  0
    0.3765   -3.5773    1.9890 H   0  0  0  0  0  0  0  0  0  0  0  0
    1.8092   -4.3907   -1.8464 H   0  0  0  0  0  0  0  0  0  0  0  0
    1.8664   -5.6158   -0.5773 H   0  0  0  0  0  0  0  0  0  0  0  0
   -0.8091   -5.7185    2.1265 H   0  0  0  0  0  0  0  0  0  0  0  0
   -0.2856   -6.1655    0.4969 H   0  0  0  0  0  0  0  0  0  0  0  0
   -1.4305   -4.8449    0.7180 H   0  0  0  0  0  0  0  0  0  0  0  0
    4.1252   -4.6618   -1.0192 H   0  0  0  0  0  0  0  0  0  0  0  0
    3.6142   -4.2185    0.6192 H   0  0  0  0  0  0  0  0  0  0  0  0
    3.5262   -3.0286   -0.6848 H   0  0  0  0  0  0  0  0  0  0  0  0
    6.9476   -0.1886   -0.2744 H   0  0  0  0  0  0  0  0  0  0  0  0
    8.7378    1.8419    0.0803 H   0  0  0  0  0  0  0  0  0  0  0  0
    7.1631    4.0814    0.4604 H   0  0  0  0  0  0  0  0  0  0  0  0
  1 22  1  0  0  0  0
  1 25  1  0  0  0  0
  2 15  1  0  0  0  0
  2 54  1  0  0  0  0
  3 20  1  0  0  0  0
  3 55  1  0  0  0  0
  4 24  2  0  0  0  0
  5 28  2  0  0  0  0
  6 31  1  0  0  0  0
  6 34  1  0  0  0  0
  7 19  1  0  0  0  0
  7 25  2  0  0  0  0
  8 24  1  0  0  0  0
  8 26  1  0  0  0  0
  8 27  1  0  0  0  0
  9 25  1  0  0  0  0
  9 28  1  0  0  0  0
  9 56  1  0  0  0  0
 10 11  1  0  0  0  0
 10 13  1  0  0  0  0
 10 14  1  0  0  0  0
 10 18  1  0  0  0  0
 11 12  1  0  0  0  0
 11 16  1  0  0  0  0
 11 35  1  0  0  0  0
 12 15  1  0  0  0  0
 12 20  1  0  0  0  0
 12 21  1  0  0  0  0
 13 19  1  0  0  0  0
 13 23  1  0  0  0  0
 13 36  1  0  0  0  0
 14 17  1  0  0  0  0
 14 37  1  0  0  0  0
 14 38  1  0  0  0  0
 15 17  1  0  0  0  0
 15 39  1  0  0  0  0
 16 22  1  0  0  0  0
 16 40  1  0  0  0  0
 16 41  1  0  0  0  0
 17 42  1  0  0  0  0
 17 43  1  0  0  0  0
 18 44  1  0  0  0  0
 18 45  1  0  0  0  0
 18 46  1  0  0  0  0
 19 22  2  0  0  0  0
 20 47  1  0  0  0  0
 20 48  1  0  0  0  0
 21 49  1  0  0  0  0
 21 50  1  0  0  0  0
 21 51  1  0  0  0  0
 23 24  1  0  0  0  0
 23 52  1  0  0  0  0
 23 53  1  0  0  0  0
 26 29  1  0  0  0  0
 26 57  1  0  0  0  0
 26 58  1  0  0  0  0
 27 30  1  0  0  0  0
 27 59  1  0  0  0  0
 27 60  1  0  0  0  0
 28 31  1  0  0  0  0
 29 61  1  0  0  0  0
 29 62  1  0  0  0  0
 29 63  1  0  0  0  0
 30 64  1  0  0  0  0
 30 65  1  0  0  0  0
 30 66  1  0  0  0  0
 31 32  2  0  0  0  0
 32 33  1  0  0  0  0
 32 67  1  0  0  0  0
 33 34  2  0  0  0  0
 33 68  1  0  0  0  0
 34 69  1  0  0  0  0
M  END
> <PUBCHEM_COMPOUND_CID>
7135154

> <PUBCHEM_CONFORMER_RMSD>
1

> <PUBCHEM_CONFORMER_DIVERSEORDER>
1
18
5
7
11
17
16
20
12
15
14
9
3
21
13
8
6
4
10
2
19

> <PUBCHEM_MMFF94_PARTIAL_CHARGES>
31
1 -0.08
13 0.18
15 0.28
16 0.18
19 0.05
2 -0.68
20 0.28
22 -0.14
23 0.06
24 0.57
25 0.44
26 0.3
27 0.3
28 0.71
3 -0.68
31 0.05
32 -0.15
33 -0.15
34 -0.01
4 -0.57
5 -0.57
54 0.4
55 0.4
56 0.37
6 -0.28
67 0.15
68 0.15
69 0.15
7 -0.57
8 -0.66
9 -0.49

> <PUBCHEM_EFFECTIVE_ROTOR_COUNT>
10.2

> <PUBCHEM_PHARMACOPHORE_FEATURES>
12
1 2 acceptor
1 2 donor
1 3 acceptor
1 3 donor
1 4 acceptor
1 5 acceptor
1 6 acceptor
1 9 donor
5 1 7 19 22 25 rings
5 6 31 32 33 34 rings
6 10 11 12 14 15 17 rings
6 10 11 13 16 19 22 rings

> <PUBCHEM_HEAVY_ATOM_COUNT>
34

> <PUBCHEM_ATOM_DEF_STEREO_COUNT>
5

> <PUBCHEM_ATOM_UDEF_STEREO_COUNT>
0

> <PUBCHEM_BOND_DEF_STEREO_COUNT>
0

> <PUBCHEM_BOND_UDEF_STEREO_COUNT>
0

> <PUBCHEM_ISOTOPIC_ATOM_COUNT>
0

> <PUBCHEM_COMPONENT_COUNT>
1

> <PUBCHEM_CACTVS_TAUTO_COUNT>
3

> <PUBCHEM_CONFORMER_ID>
006CDFB200000001

> <PUBCHEM_MMFF94_ENERGY>
89.0897

> <PUBCHEM_FEATURE_SELFOVERLAP>
61.043

> <PUBCHEM_SHAPE_FINGERPRINT>
10050765 1 18123187897298845005
10675989 125 18268432343787154800
10906281 52 18336841826478470993
10940486 97 17974291229390289436
11007060 377 18198341951728161792
11135609 187 18341891909254746896
11135926 11 18411696552454348933
11315181 36 18339926016993391833
11578080 2 17461144475487435957
11719270 70 18412255126426438848
11763715 3 17043192471502549590
12522641 33 18408881846084983239
13540713 5 17914895332338058873
14028597 1 17703247160377477555
14659021 117 17624678451985801518
14725015 67 17908422811421177786
14790565 3 18410575119371646052
14856354 85 16153705474708199576
15183329 4 18335414681892434064
15200665 1 18053379087653658722
15320294 125 18042102351124336458
15400415 2 18339359781843429228
15439362 3 18338517430611783371
15664445 248 17911244918757445671
15815584 197 18266201498675834295
15927050 60 18412260670813376766
16067689 302 18413953889298705799
16719943 64 18338232782166054378
16993438 75 18118407478038347706
18681886 176 18265043802947316401
20554085 129 18059276726433202856
20642791 35 18196380216773310735
21133665 82 18412546531668140510
21360443 120 18409450280669242222
23559900 14 18050279272290957355
244849 19 17825132349596557379
283562 15 18342741784240551432
3298306 158 18411702084292786614
3383291 50 18265332987479448850
3411729 13 18340487768370810590
4017518 198 18272094933389823206
4058900 60 18408608054261368354
4516262 110 18410571748455399429
5085150 59 18339912805868362938
5265222 85 18266179611739245732
5385378 56 18339932510883236065
563151 97 18410568466751855421
57527295 17 18128797704771912301
59755656 215 18412826875950198493
6371380 46 18271802484465826152
6376802 90 17967809389701643973
6669772 16 18410293583953942806
6898599 12 17975141143394289596
99344 41 18412259515608864652
9961470 85 18411418428375204634
9981440 41 18261117382831665915

> <PUBCHEM_SHAPE_MULTIPOLES>
659.26
15.91
6.13
1.05
13.58
10.13
-0.13
-18.02
0.6
4.21
-0.75
-0.9
0.41
0.9

> <PUBCHEM_SHAPE_SELFOVERLAP>
1383.405

> <PUBCHEM_SHAPE_VOLUME>
376.1

> <PUBCHEM_COORDINATE_TYPE>
2
5
10

$$$$
