11886105
  -OEChem-12032416413D

 46 49  0     1  0  0  0  0  0999 V2000
   -0.8560   -0.2213   -0.9381 O   0  0  0  0  0  0  0  0  0  0  0  0
   -2.4305   -2.4364    0.5349 O   0  0  0  0  0  0  0  0  0  0  0  0
    1.0768   -1.7347    0.3440 O   0  0  0  0  0  0  0  0  0  0  0  0
    1.5773    0.2003    1.4555 O   0  0  0  0  0  0  0  0  0  0  0  0
   -3.8945    0.8308   -0.2394 N   0  0  0  0  0  0  0  0  0  0  0  0
   -3.2653    2.0045   -0.3545 N   0  0  0  0  0  0  0  0  0  0  0  0
   -5.3596    2.3082    0.3469 N   0  0  0  0  0  0  0  0  0  0  0  0
   -4.1685    2.9081    0.0059 N   0  0  0  0  0  0  0  0  0  0  0  0
    3.1469   -0.8751    0.0917 N   0  0  0  0  0  0  0  0  0  0  0  0
    8.7284   -0.2037   -1.6964 N   0  0  0  0  0  0  0  0  0  0  0  0
   -2.4624   -0.9954    0.6324 C   0  0  1  0  0  0  0  0  0  0  0  0
   -1.0361   -0.5131    0.4565 C   0  0  1  0  0  0  0  0  0  0  0  0
   -3.2070   -0.4228   -0.5580 C   0  0  2  0  0  0  0  0  0  0  0  0
   -0.2243   -1.7121    0.8854 C   0  0  1  0  0  0  0  0  0  0  0  0
   -2.1157   -0.3183   -1.6184 C   0  0  0  0  0  0  0  0  0  0  0  0
   -1.0687   -2.8616    0.3869 C   0  0  0  0  0  0  0  0  0  0  0  0
   -5.1658    1.0194    0.1865 C   0  0  0  0  0  0  0  0  0  0  0  0
   -6.1259   -0.0730    0.4128 C   0  0  0  0  0  0  0  0  0  0  0  0
    1.9200   -0.7035    0.7031 C   0  0  0  0  0  0  0  0  0  0  0  0
   -6.9726   -0.4609   -0.7870 C   0  0  0  0  0  0  0  0  0  0  0  0
    4.2909   -0.0507    0.1892 C   0  0  0  0  0  0  0  0  0  0  0  0
   -8.3029   -0.3338   -0.8505 C   0  0  0  0  0  0  0  0  0  0  0  0
    5.4389   -0.3962   -0.5060 C   0  0  0  0  0  0  0  0  0  0  0  0
    4.2426    1.0863    0.9800 C   0  0  0  0  0  0  0  0  0  0  0  0
    6.5682    0.4167   -0.4077 C   0  0  0  0  0  0  0  0  0  0  0  0
    5.3718    1.8991    1.0782 C   0  0  0  0  0  0  0  0  0  0  0  0
    6.5346    1.5645    0.3844 C   0  0  0  0  0  0  0  0  0  0  0  0
    7.7595    0.0746   -1.1184 C   0  0  0  0  0  0  0  0  0  0  0  0
   -2.8881   -0.7419    1.6085 H   0  0  0  0  0  0  0  0  0  0  0  0
   -0.8327    0.4037    1.0163 H   0  0  0  0  0  0  0  0  0  0  0  0
   -3.9817   -1.1017   -0.9310 H   0  0  0  0  0  0  0  0  0  0  0  0
   -0.1774   -1.7627    1.9817 H   0  0  0  0  0  0  0  0  0  0  0  0
   -2.2278    0.5263   -2.3047 H   0  0  0  0  0  0  0  0  0  0  0  0
   -2.0796   -1.2339   -2.2197 H   0  0  0  0  0  0  0  0  0  0  0  0
   -0.9051   -3.7785    0.9610 H   0  0  0  0  0  0  0  0  0  0  0  0
   -0.8803   -3.0907   -0.6680 H   0  0  0  0  0  0  0  0  0  0  0  0
   -6.7867    0.2243    1.2382 H   0  0  0  0  0  0  0  0  0  0  0  0
   -5.6132   -0.9735    0.7720 H   0  0  0  0  0  0  0  0  0  0  0  0
    3.2409   -1.6953   -0.5025 H   0  0  0  0  0  0  0  0  0  0  0  0
   -6.4508   -0.8802   -1.6438 H   0  0  0  0  0  0  0  0  0  0  0  0
   -8.8421   -0.6380   -1.7408 H   0  0  0  0  0  0  0  0  0  0  0  0
   -8.8730    0.0735   -0.0229 H   0  0  0  0  0  0  0  0  0  0  0  0
    5.4607   -1.2923   -1.1223 H   0  0  0  0  0  0  0  0  0  0  0  0
    3.3809    1.4102    1.5452 H   0  0  0  0  0  0  0  0  0  0  0  0
    5.3468    2.7932    1.6946 H   0  0  0  0  0  0  0  0  0  0  0  0
    7.4067    2.2083    0.4711 H   0  0  0  0  0  0  0  0  0  0  0  0
  1 12  1  0  0  0  0
  1 15  1  0  0  0  0
  2 11  1  0  0  0  0
  2 16  1  0  0  0  0
  3 14  1  0  0  0  0
  3 19  1  0  0  0  0
  4 19  2  0  0  0  0
  5  6  1  0  0  0  0
  5 13  1  0  0  0  0
  5 17  1  0  0  0  0
  6  8  2  0  0  0  0
  7  8  1  0  0  0  0
  7 17  2  0  0  0  0
  9 19  1  0  0  0  0
  9 21  1  0  0  0  0
  9 39  1  0  0  0  0
 10 28  3  0  0  0  0
 11 12  1  0  0  0  0
 11 13  1  0  0  0  0
 11 29  1  0  0  0  0
 12 14  1  0  0  0  0
 12 30  1  0  0  0  0
 13 15  1  0  0  0  0
 13 31  1  0  0  0  0
 14 16  1  0  0  0  0
 14 32  1  0  0  0  0
 15 33  1  0  0  0  0
 15 34  1  0  0  0  0
 16 35  1  0  0  0  0
 16 36  1  0  0  0  0
 17 18  1  0  0  0  0
 18 20  1  0  0  0  0
 18 37  1  0  0  0  0
 18 38  1  0  0  0  0
 20 22  2  0  0  0  0
 20 40  1  0  0  0  0
 21 23  1  0  0  0  0
 21 24  2  0  0  0  0
 22 41  1  0  0  0  0
 22 42  1  0  0  0  0
 23 25  2  0  0  0  0
 23 43  1  0  0  0  0
 24 26  1  0  0  0  0
 24 44  1  0  0  0  0
 25 27  1  0  0  0  0
 25 28  1  0  0  0  0
 26 27  2  0  0  0  0
 26 45  1  0  0  0  0
 27 46  1  0  0  0  0
M  END
> <PUBCHEM_COMPOUND_CID>
11886105

> <PUBCHEM_CONFORMER_RMSD>
1

> <PUBCHEM_CONFORMER_DIVERSEORDER>
1
85
154
140
160
24
153
116
175
162
157
135
163
42
118
170
199
152
90
186
70
137
31
21
164
19
57
10
180
63
172
155
20
30
127
64
181
167
38
187
88
169
150
132
9
189
112
143
166
133
25
151
101
197
111
81
61
86
122
108
144
165
110
26
76
33
66
124
184
173
3
171
95
74
138
83
192
23
148
99
36
156
41
77
68
11
53
196
43
179
97
44
147
5
128
92
82
87
52
89
177
130
27
62
178
107
14
146
119
139
104
32
106
161
145
28
56
109
8
4
49
78
190
60
134
123
113
96
182
67
55
105
69
35
54
50
29
159
142
125
84
48
115
7
174
103
158
40
102
120
72
149
131
58
93
59
193
185
198
91
17
79
73
13
75
65
71
195
45
18
94
12
136
47
168
188
129
117
2
183
46
121
176
141
51
15
114
194
191
6
22
98
126
100
16
37
80
39
34

> <PUBCHEM_MMFF94_PARTIAL_CHARGES>
35
1 -0.56
10 -0.56
11 0.28
12 0.28
13 0.26
14 0.28
15 0.28
16 0.28
17 0.01
18 0.32
19 0.78
2 -0.56
20 -0.29
21 0.12
22 -0.3
23 -0.15
24 -0.15
25 0.07
26 -0.15
27 -0.15
28 0.48
3 -0.43
39 0.37
4 -0.57
40 0.15
41 0.15
42 0.15
43 0.15
44 0.15
45 0.15
46 0.15
5 0.31
6 -0.42
7 -0.34
9 -0.55

> <PUBCHEM_EFFECTIVE_ROTOR_COUNT>
8.2

> <PUBCHEM_PHARMACOPHORE_FEATURES>
11
1 1 acceptor
1 10 acceptor
1 2 acceptor
1 22 hydrophobe
1 4 acceptor
1 9 donor
3 5 7 17 cation
5 1 11 12 13 15 rings
5 2 11 12 14 16 rings
5 5 6 7 8 17 rings
6 21 23 24 25 26 27 rings

> <PUBCHEM_HEAVY_ATOM_COUNT>
28

> <PUBCHEM_ATOM_DEF_STEREO_COUNT>
4

> <PUBCHEM_ATOM_UDEF_STEREO_COUNT>
0

> <PUBCHEM_BOND_DEF_STEREO_COUNT>
0

> <PUBCHEM_BOND_UDEF_STEREO_COUNT>
0

> <PUBCHEM_ISOTOPIC_ATOM_COUNT>
0

> <PUBCHEM_COMPONENT_COUNT>
1

> <PUBCHEM_CACTVS_TAUTO_COUNT>
2

> <PUBCHEM_CONFORMER_ID>
00B55E1900000001

> <PUBCHEM_MMFF94_ENERGY>
64.8285

> <PUBCHEM_FEATURE_SELFOVERLAP>
56.523

> <PUBCHEM_SHAPE_FINGERPRINT>
10 15 15357695292874050094
10454371 7 18342455976221216943
106641 1 16805612473421473531
10669705 176 18408603647482777207
10670039 82 18409446951495237252
11973863 73 13182475343108962095
12082328 90 16343990191142190593
12390115 104 18408326579179214763
12760667 363 9007060167100483275
14257110 125 18335136483864370267
14394314 77 9727636103079131389
1454969 45 18408315589201682509
14933364 13 18342740715098811360
15183329 4 17203612566729888226
15188451 53 11455893542788818586
1577012 14 18335980861892889841
1754911 235 18343858918983539741
17857418 61 10159698006091745496
17899979 19 17168144546596147613
18608769 82 18340204197977723331
19611394 137 17969797448147289555
20281389 69 18187359922368707264
21033648 29 18270952575094000688
21095086 128 17203607099568895023
21150785 3 17418092135159614979
21623969 137 12468633929172751736
21792961 116 18130516266730334250
22224240 67 17821443569610807547
23198884 109 18413670214195601427
23559900 14 18271526490246647618
312425 54 11170184329103010556
4098825 35 18060138721642311582
44317340 157 16844438509309607872
5104073 3 17967244300364217810
54076057 255 17168152278212422420
559249 180 9367338250687130249
5758199 1 18335421249582556395
59755656 520 18334290976708461866
7808743 9 18408315592636897977
9953998 17 11602824618117788364

> <PUBCHEM_SHAPE_MULTIPOLES>
522.86
23.28
2.28
1.19
14.29
0.29
-0.22
7.76
-8.21
-1.99
0.6
1.01
-0.08
0.78

> <PUBCHEM_SHAPE_SELFOVERLAP>
1127.23

> <PUBCHEM_SHAPE_VOLUME>
286.4

> <PUBCHEM_COORDINATE_TYPE>
2
5
10

$$$$
