7143738
  -OEChem-12032416113D

 54 58  0     1  0  0  0  0  0999 V2000
   -6.5539    4.2646    0.6512 Cl  0  0  0  0  0  0  0  0  0  0  0  0
   -2.8312   -1.1038    1.5880 O   0  0  0  0  0  0  0  0  0  0  0  0
    2.4868   -1.0250    2.1457 O   0  0  0  0  0  0  0  0  0  0  0  0
    3.2563    0.9799    0.8123 O   0  0  0  0  0  0  0  0  0  0  0  0
    1.8707   -2.3380    0.3304 N   0  0  0  0  0  0  0  0  0  0  0  0
   -1.3054   -2.0822    0.1203 N   0  0  0  0  0  0  0  0  0  0  0  0
    0.1451   -4.0875    0.7767 C   0  0  1  0  0  0  0  0  0  0  0  0
    0.3465   -3.1189   -1.4743 C   0  0  2  0  0  0  0  0  0  0  0  0
    0.1134   -4.4203   -0.7100 C   0  0  0  0  0  0  0  0  0  0  0  0
    1.5058   -3.4837    1.1658 C   0  0  0  0  0  0  0  0  0  0  0  0
   -1.0180   -3.1414    1.0974 C   0  0  0  0  0  0  0  0  0  0  0  0
    1.7351   -2.5525   -1.1182 C   0  0  0  0  0  0  0  0  0  0  0  0
   -0.7248   -2.0947   -1.1501 C   0  0  0  0  0  0  0  0  0  0  0  0
   -1.0931   -1.1867   -2.0677 C   0  0  0  0  0  0  0  0  0  0  0  0
   -2.2718   -1.1262    0.4901 C   0  0  0  0  0  0  0  0  0  0  0  0
    2.3814   -1.1851    0.9270 C   0  0  0  0  0  0  0  0  0  0  0  0
   -2.6368   -0.0989   -0.5474 C   0  0  0  0  0  0  0  0  0  0  0  0
   -2.0597   -0.1725   -1.7560 C   0  0  0  0  0  0  0  0  0  0  0  0
    2.8166   -0.0799   -0.0018 C   0  0  0  0  0  0  0  0  0  0  0  0
   -3.6012    0.9750   -0.2519 C   0  0  0  0  0  0  0  0  0  0  0  0
   -4.9606    0.7808   -0.4997 C   0  0  0  0  0  0  0  0  0  0  0  0
   -3.1561    2.1879    0.2754 C   0  0  0  0  0  0  0  0  0  0  0  0
    4.2035    1.8303    0.2868 C   0  0  0  0  0  0  0  0  0  0  0  0
   -5.8735    1.7979   -0.2207 C   0  0  0  0  0  0  0  0  0  0  0  0
   -4.0690    3.2049    0.5546 C   0  0  0  0  0  0  0  0  0  0  0  0
   -5.4277    3.0099    0.3065 C   0  0  0  0  0  0  0  0  0  0  0  0
    4.2376    2.0498   -1.0822 C   0  0  0  0  0  0  0  0  0  0  0  0
    5.1072    2.4518    1.1356 C   0  0  0  0  0  0  0  0  0  0  0  0
    5.1975    2.9104   -1.6148 C   0  0  0  0  0  0  0  0  0  0  0  0
    6.0671    3.3125    0.6032 C   0  0  0  0  0  0  0  0  0  0  0  0
    6.1122    3.5418   -0.7721 C   0  0  0  0  0  0  0  0  0  0  0  0
    0.0117   -5.0060    1.3617 H   0  0  0  0  0  0  0  0  0  0  0  0
    0.3299   -3.3453   -2.5484 H   0  0  0  0  0  0  0  0  0  0  0  0
   -0.8499   -4.8673   -0.9860 H   0  0  0  0  0  0  0  0  0  0  0  0
    0.8907   -5.1543   -0.9552 H   0  0  0  0  0  0  0  0  0  0  0  0
    1.5072   -3.2070    2.2255 H   0  0  0  0  0  0  0  0  0  0  0  0
    2.2956   -4.2332    1.0310 H   0  0  0  0  0  0  0  0  0  0  0  0
   -1.9409   -3.7330    1.1710 H   0  0  0  0  0  0  0  0  0  0  0  0
   -0.8772   -2.6795    2.0828 H   0  0  0  0  0  0  0  0  0  0  0  0
    2.5167   -3.2671   -1.4049 H   0  0  0  0  0  0  0  0  0  0  0  0
    1.9236   -1.6374   -1.6841 H   0  0  0  0  0  0  0  0  0  0  0  0
   -0.6507   -1.1681   -3.0583 H   0  0  0  0  0  0  0  0  0  0  0  0
   -2.2871    0.5442   -2.5398 H   0  0  0  0  0  0  0  0  0  0  0  0
    1.9596    0.2534   -0.5958 H   0  0  0  0  0  0  0  0  0  0  0  0
    3.6196   -0.4784   -0.6338 H   0  0  0  0  0  0  0  0  0  0  0  0
   -5.3235   -0.1588   -0.9096 H   0  0  0  0  0  0  0  0  0  0  0  0
   -2.1002    2.3545    0.4750 H   0  0  0  0  0  0  0  0  0  0  0  0
   -6.9293    1.6318   -0.4188 H   0  0  0  0  0  0  0  0  0  0  0  0
   -3.7074    4.1441    0.9655 H   0  0  0  0  0  0  0  0  0  0  0  0
    3.5275    1.5960   -1.7665 H   0  0  0  0  0  0  0  0  0  0  0  0
    5.0745    2.2748    2.2066 H   0  0  0  0  0  0  0  0  0  0  0  0
    5.2295    3.0937   -2.6848 H   0  0  0  0  0  0  0  0  0  0  0  0
    6.7791    3.8043    1.2593 H   0  0  0  0  0  0  0  0  0  0  0  0
    6.8588    4.2130   -1.1864 H   0  0  0  0  0  0  0  0  0  0  0  0
  1 26  1  0  0  0  0
  2 15  2  0  0  0  0
  3 16  2  0  0  0  0
  4 19  1  0  0  0  0
  4 23  1  0  0  0  0
  5 10  1  0  0  0  0
  5 12  1  0  0  0  0
  5 16  1  0  0  0  0
  6 11  1  0  0  0  0
  6 13  1  0  0  0  0
  6 15  1  0  0  0  0
  7  9  1  0  0  0  0
  7 10  1  0  0  0  0
  7 11  1  0  0  0  0
  7 32  1  0  0  0  0
  8  9  1  0  0  0  0
  8 12  1  0  0  0  0
  8 13  1  0  0  0  0
  8 33  1  0  0  0  0
  9 34  1  0  0  0  0
  9 35  1  0  0  0  0
 10 36  1  0  0  0  0
 10 37  1  0  0  0  0
 11 38  1  0  0  0  0
 11 39  1  0  0  0  0
 12 40  1  0  0  0  0
 12 41  1  0  0  0  0
 13 14  2  0  0  0  0
 14 18  1  0  0  0  0
 14 42  1  0  0  0  0
 15 17  1  0  0  0  0
 16 19  1  0  0  0  0
 17 18  2  0  0  0  0
 17 20  1  0  0  0  0
 18 43  1  0  0  0  0
 19 44  1  0  0  0  0
 19 45  1  0  0  0  0
 20 21  2  0  0  0  0
 20 22  1  0  0  0  0
 21 24  1  0  0  0  0
 21 46  1  0  0  0  0
 22 25  2  0  0  0  0
 22 47  1  0  0  0  0
 23 27  2  0  0  0  0
 23 28  1  0  0  0  0
 24 26  2  0  0  0  0
 24 48  1  0  0  0  0
 25 26  1  0  0  0  0
 25 49  1  0  0  0  0
 27 29  1  0  0  0  0
 27 50  1  0  0  0  0
 28 30  2  0  0  0  0
 28 51  1  0  0  0  0
 29 31  2  0  0  0  0
 29 52  1  0  0  0  0
 30 31  1  0  0  0  0
 30 53  1  0  0  0  0
 31 54  1  0  0  0  0
M  END
> <PUBCHEM_COMPOUND_CID>
7143738

> <PUBCHEM_CONFORMER_RMSD>
0.8

> <PUBCHEM_CONFORMER_DIVERSEORDER>
1
14
5
19
33
17
4
2
28
30
10
27
16
20
18
13
8
9
37
43
39
25
21
22
26
42
34
36
32
45
31
12
38
3
23
40
44
11
41
6
15
35
29
7
24

> <PUBCHEM_MMFF94_PARTIAL_CHARGES>
40
1 -0.18
10 0.3
11 0.3
12 0.3
13 -0.03
14 -0.15
15 0.62
16 0.57
17 -0.01
18 -0.15
19 0.34
2 -0.57
20 0.03
21 -0.15
22 -0.15
23 0.08
24 -0.15
25 -0.15
26 0.18
27 -0.15
28 -0.15
29 -0.15
3 -0.57
30 -0.15
31 -0.15
4 -0.36
42 0.15
43 0.15
46 0.15
47 0.15
48 0.15
49 0.15
5 -0.66
50 0.15
51 0.15
52 0.15
53 0.15
54 0.15
6 -0.47
8 0.14

> <PUBCHEM_EFFECTIVE_ROTOR_COUNT>
6

> <PUBCHEM_PHARMACOPHORE_FEATURES>
8
1 2 acceptor
1 3 acceptor
1 4 acceptor
6 20 21 22 24 25 26 rings
6 23 27 28 29 30 31 rings
6 5 7 8 9 10 12 rings
6 6 13 14 15 17 18 rings
6 6 7 8 9 11 13 rings

> <PUBCHEM_HEAVY_ATOM_COUNT>
31

> <PUBCHEM_ATOM_DEF_STEREO_COUNT>
2

> <PUBCHEM_ATOM_UDEF_STEREO_COUNT>
0

> <PUBCHEM_BOND_DEF_STEREO_COUNT>
0

> <PUBCHEM_BOND_UDEF_STEREO_COUNT>
0

> <PUBCHEM_ISOTOPIC_ATOM_COUNT>
0

> <PUBCHEM_COMPONENT_COUNT>
1

> <PUBCHEM_CACTVS_TAUTO_COUNT>
1

> <PUBCHEM_CONFORMER_ID>
006D013A00000001

> <PUBCHEM_MMFF94_ENERGY>
91.4994

> <PUBCHEM_FEATURE_SELFOVERLAP>
42.181

> <PUBCHEM_SHAPE_FINGERPRINT>
10483366 6 18124611795179861110
10675989 125 18197502826630138552
10864689 126 18342460357305286656
10937287 8 18410854378055060942
11059845 2 18122313970496366104
11135609 187 18262499486565804909
11477941 20 17120007085929124212
11505856 67 18269826679113087631
11578080 2 18269011825470599819
11720765 8 17559404548628269284
12107183 9 18189317070979137394
12633257 1 17750787749402672531
12741549 16 17395863064037582830
12788726 201 18050550035424397375
13944108 23 18052824641577630324
14251764 75 18410577275223695729
14664723 55 18188500197964425516
14849402 71 18192430766806434490
15142526 21 18335702706804729083
15163728 17 18412831286918638471
15198563 99 17768804617813736487
15439362 3 18412266117279352500
15475509 35 11531925896973101645
15513586 35 16665432634766998580
16120349 67 18341060704650878204
16988056 13 17835802993626435324
21033650 10 17828220010587198396
21133410 127 18115308856624204196
21365058 113 17337604349375422351
21475661 188 18267022752326040747
21756936 100 18267861873277121150
23559900 14 17910397182934600911
245318 6 18333740108413609612
3388396 114 16755498137418455132
3411729 13 18269274565383369637
3610482 184 17899423271068422748
4058900 60 18410017606619416249
474 4 18267578023078351431
50150288 127 16597364051634338076
5047190 36 17968106360003598268
508706 21 17840576325959201960
5219985 13 18411981372957271460
5265222 85 18269275823566922001
53794403 172 18267307525937764041
57527585 21 18198604705164436871
57724786 102 18335692815732104786
5776283 40 18268730341803493980
6086070 43 17250877063031303951
7288768 16 18186798127492495890
7808743 9 18266737064133761618
9849439 229 18411135839925616004
9896288 288 18117567433842774226
9981440 41 18409455803912886297

> <PUBCHEM_SHAPE_MULTIPOLES>
612.27
13.97
6.89
1.62
0.44
1.3
-0.22
-28.59
0.79
-1.72
0.54
-0.81
0.64
-1.65

> <PUBCHEM_SHAPE_SELFOVERLAP>
1336.763

> <PUBCHEM_SHAPE_VOLUME>
329.6

> <PUBCHEM_COORDINATE_TYPE>
2
5
10

$$$$
