45783501
  -OEChem-12032416273D

 58 61  0     1  0  0  0  0  0999 V2000
   -2.3767   -1.7739    1.9284 O   0  0  0  0  0  0  0  0  0  0  0  0
   -2.2156    1.3776   -2.2680 O   0  0  0  0  0  0  0  0  0  0  0  0
    0.4893    3.4978    1.0339 O   0  0  0  0  0  0  0  0  0  0  0  0
    7.4297    0.3578   -0.3787 O   0  0  0  0  0  0  0  0  0  0  0  0
   -4.1996   -0.3184   -0.9113 N   0  0  1  0  0  0  0  0  0  0  0  0
   -1.4756   -1.1621   -0.0288 N   0  0  0  0  0  0  0  0  0  0  0  0
   -0.9888   -1.7918    2.1161 N   0  0  0  0  0  0  0  0  0  0  0  0
    3.1586   -1.4650    1.4053 N   0  0  0  0  0  0  0  0  0  0  0  0
    4.9404   -0.9689   -0.0961 N   0  0  0  0  0  0  0  0  0  0  0  0
   -4.0171   -1.2950    0.1811 C   0  0  1  0  0  0  0  0  0  0  0  0
   -4.5520   -2.6223   -0.3874 C   0  0  0  0  0  0  0  0  0  0  0  0
   -5.0684   -2.2801   -1.7777 C   0  0  0  0  0  0  0  0  0  0  0  0
   -5.3363   -0.7905   -1.7022 C   0  0  0  0  0  0  0  0  0  0  0  0
   -4.3913    1.0458   -0.4361 C   0  0  0  0  0  0  0  0  0  0  0  0
   -2.5772   -1.3934    0.6395 C   0  0  0  0  0  0  0  0  0  0  0  0
   -3.0871    1.6963   -0.0580 C   0  0  0  0  0  0  0  0  0  0  0  0
   -2.0605    1.8317   -0.9928 C   0  0  0  0  0  0  0  0  0  0  0  0
   -2.9117    2.1664    1.2435 C   0  0  0  0  0  0  0  0  0  0  0  0
   -0.5276   -1.4196    0.9183 C   0  0  0  0  0  0  0  0  0  0  0  0
   -0.8585    2.4370   -0.6258 C   0  0  0  0  0  0  0  0  0  0  0  0
   -1.7096    2.7714    1.6106 C   0  0  0  0  0  0  0  0  0  0  0  0
    0.8732   -1.2971    0.6349 C   0  0  0  0  0  0  0  0  0  0  0  0
   -0.6830    2.9068    0.6758 C   0  0  0  0  0  0  0  0  0  0  0  0
    1.3183   -0.9087   -0.6239 C   0  0  0  0  0  0  0  0  0  0  0  0
    1.8251   -1.5614    1.6064 C   0  0  0  0  0  0  0  0  0  0  0  0
    2.6826   -0.7983   -0.8692 C   0  0  0  0  0  0  0  0  0  0  0  0
    3.5536   -1.0850    0.1696 C   0  0  0  0  0  0  0  0  0  0  0  0
    1.4967    3.6038    0.0288 C   0  0  0  0  0  0  0  0  0  0  0  0
    5.4506   -0.5757   -1.3692 C   0  0  0  0  0  0  0  0  0  0  0  0
    6.9696   -0.5795   -1.3441 C   0  0  0  0  0  0  0  0  0  0  0  0
    8.8490    0.3944   -0.3232 C   0  0  0  0  0  0  0  0  0  0  0  0
   -4.6394   -1.0305    1.0477 H   0  0  0  0  0  0  0  0  0  0  0  0
   -3.8004   -3.4176   -0.4364 H   0  0  0  0  0  0  0  0  0  0  0  0
   -5.3818   -2.9814    0.2336 H   0  0  0  0  0  0  0  0  0  0  0  0
   -5.9616   -2.8546   -2.0404 H   0  0  0  0  0  0  0  0  0  0  0  0
   -4.2941   -2.4922   -2.5254 H   0  0  0  0  0  0  0  0  0  0  0  0
   -6.2914   -0.6009   -1.1961 H   0  0  0  0  0  0  0  0  0  0  0  0
   -5.3635   -0.3359   -2.6973 H   0  0  0  0  0  0  0  0  0  0  0  0
   -5.1183    1.0897    0.3856 H   0  0  0  0  0  0  0  0  0  0  0  0
   -4.8202    1.6647   -1.2371 H   0  0  0  0  0  0  0  0  0  0  0  0
   -3.7011    2.0665    1.9836 H   0  0  0  0  0  0  0  0  0  0  0  0
   -0.0927    2.5155   -1.3903 H   0  0  0  0  0  0  0  0  0  0  0  0
   -1.5783    3.1345    2.6262 H   0  0  0  0  0  0  0  0  0  0  0  0
   -1.4012    1.5491   -2.7710 H   0  0  0  0  0  0  0  0  0  0  0  0
    0.6250   -0.6850   -1.4307 H   0  0  0  0  0  0  0  0  0  0  0  0
    1.5609   -1.8693    2.6137 H   0  0  0  0  0  0  0  0  0  0  0  0
    2.9948   -0.4910   -1.8602 H   0  0  0  0  0  0  0  0  0  0  0  0
    5.5668   -1.1778    0.6729 H   0  0  0  0  0  0  0  0  0  0  0  0
    2.3592    4.0984    0.4873 H   0  0  0  0  0  0  0  0  0  0  0  0
    1.1707    4.2371   -0.8033 H   0  0  0  0  0  0  0  0  0  0  0  0
    1.8360    2.6178   -0.3065 H   0  0  0  0  0  0  0  0  0  0  0  0
    5.1214   -1.2640   -2.1563 H   0  0  0  0  0  0  0  0  0  0  0  0
    5.1109    0.4381   -1.6134 H   0  0  0  0  0  0  0  0  0  0  0  0
    7.3431   -1.5791   -1.0900 H   0  0  0  0  0  0  0  0  0  0  0  0
    7.3520   -0.3026   -2.3334 H   0  0  0  0  0  0  0  0  0  0  0  0
    9.2633    0.6996   -1.2890 H   0  0  0  0  0  0  0  0  0  0  0  0
    9.1451    1.1286    0.4309 H   0  0  0  0  0  0  0  0  0  0  0  0
    9.2471   -0.5829   -0.0337 H   0  0  0  0  0  0  0  0  0  0  0  0
  1  7  1  0  0  0  0
  1 15  1  0  0  0  0
  2 17  1  0  0  0  0
  2 44  1  0  0  0  0
  3 23  1  0  0  0  0
  3 28  1  0  0  0  0
  4 30  1  0  0  0  0
  4 31  1  0  0  0  0
  5 10  1  0  0  0  0
  5 13  1  0  0  0  0
  5 14  1  0  0  0  0
  6 15  2  0  0  0  0
  6 19  1  0  0  0  0
  7 19  2  0  0  0  0
  8 25  1  0  0  0  0
  8 27  2  0  0  0  0
  9 27  1  0  0  0  0
  9 29  1  0  0  0  0
  9 48  1  0  0  0  0
 10 11  1  0  0  0  0
 10 15  1  0  0  0  0
 10 32  1  0  0  0  0
 11 12  1  0  0  0  0
 11 33  1  0  0  0  0
 11 34  1  0  0  0  0
 12 13  1  0  0  0  0
 12 35  1  0  0  0  0
 12 36  1  0  0  0  0
 13 37  1  0  0  0  0
 13 38  1  0  0  0  0
 14 16  1  0  0  0  0
 14 39  1  0  0  0  0
 14 40  1  0  0  0  0
 16 17  2  0  0  0  0
 16 18  1  0  0  0  0
 17 20  1  0  0  0  0
 18 21  2  0  0  0  0
 18 41  1  0  0  0  0
 19 22  1  0  0  0  0
 20 23  2  0  0  0  0
 20 42  1  0  0  0  0
 21 23  1  0  0  0  0
 21 43  1  0  0  0  0
 22 24  1  0  0  0  0
 22 25  2  0  0  0  0
 24 26  2  0  0  0  0
 24 45  1  0  0  0  0
 25 46  1  0  0  0  0
 26 27  1  0  0  0  0
 26 47  1  0  0  0  0
 28 49  1  0  0  0  0
 28 50  1  0  0  0  0
 28 51  1  0  0  0  0
 29 30  1  0  0  0  0
 29 52  1  0  0  0  0
 29 53  1  0  0  0  0
 30 54  1  0  0  0  0
 30 55  1  0  0  0  0
 31 56  1  0  0  0  0
 31 57  1  0  0  0  0
 31 58  1  0  0  0  0
M  END
> <PUBCHEM_COMPOUND_CID>
45783501

> <PUBCHEM_CONFORMER_RMSD>
1

> <PUBCHEM_CONFORMER_DIVERSEORDER>
1
111
128
85
62
134
97
139
117
13
73
35
102
96
138
115
119
108
103
116
27
90
127
107
114
83
24
76
121
11
21
143
106
142
136
79
123
113
42
51
47
10
131
129
100
86
110
133
16
4
135
120
109
25
74
54
81
69
5
50
56
2
52
112
40
101
75
58
124
3
132
37
6
99
95
77
91
39
36
84
122
15
66
80
78
18
104
137
23
72
141
14
93
44
70
48
105
22
12
98
68
38
29
65
59
28
57
26
9
126
87
61
20
94
67
31
17
33
60
140
89
63
45
34
92
41
30
125
43
19
46
53
49
7
8
82
118
32
88
71
55
130
64

> <PUBCHEM_MMFF94_PARTIAL_CHARGES>
37
1 -0.02
10 0.45
13 0.27
14 0.41
15 0.3
16 -0.14
17 0.08
18 -0.15
19 0.46
2 -0.53
20 -0.15
21 -0.15
22 0.05
23 0.08
24 -0.15
25 0.16
26 -0.15
27 0.41
28 0.28
29 0.37
3 -0.36
30 0.28
31 0.28
4 -0.56
41 0.15
42 0.15
43 0.15
44 0.45
45 0.15
46 0.15
47 0.15
48 0.4
5 -0.81
6 -0.57
7 -0.41
8 -0.62
9 -0.87

> <PUBCHEM_EFFECTIVE_ROTOR_COUNT>
10

> <PUBCHEM_PHARMACOPHORE_FEATURES>
11
1 2 donor
1 3 acceptor
1 4 acceptor
1 5 cation
1 9 donor
3 6 7 19 cation
3 8 9 27 cation
5 1 6 7 15 19 rings
5 5 10 11 12 13 rings
6 16 17 18 20 21 23 rings
6 8 22 24 25 26 27 rings

> <PUBCHEM_HEAVY_ATOM_COUNT>
31

> <PUBCHEM_ATOM_DEF_STEREO_COUNT>
1

> <PUBCHEM_ATOM_UDEF_STEREO_COUNT>
0

> <PUBCHEM_BOND_DEF_STEREO_COUNT>
0

> <PUBCHEM_BOND_UDEF_STEREO_COUNT>
0

> <PUBCHEM_ISOTOPIC_ATOM_COUNT>
0

> <PUBCHEM_COMPONENT_COUNT>
1

> <PUBCHEM_CACTVS_TAUTO_COUNT>
24

> <PUBCHEM_CONFORMER_ID>
02BA99CD00000001

> <PUBCHEM_MMFF94_ENERGY>
81.3994

> <PUBCHEM_FEATURE_SELFOVERLAP>
55.822

> <PUBCHEM_SHAPE_FINGERPRINT>
10454371 7 18340776970684555988
1100329 8 18340482280230989401
11477941 20 18272080613240792740
12107698 1 18342175592145081260
12156800 1 14208085396972951489
12788726 201 18335699377993720987
13761468 95 17829898633243886820
14931854 50 18260259724753834615
15183329 4 18041285358066616038
17492 54 18040987407209515045
20609170 92 18115582802987162940
20642791 35 18337373990913260497
20691752 17 17532068623672100625
20721686 56 18339643472986146736
20775438 99 17333903840288005999
20905425 154 18123181562268750741
21304303 64 17095805417815450293
21344244 246 17910386522303097359
23559900 14 18041276685414023468
484985 159 13110669511648522733
497634 4 17131841953711684682
5171179 24 18272365433701881161
531348 171 18057894537027707894

> <PUBCHEM_SHAPE_MULTIPOLES>
589.58
15.15
3.78
1.79
36.56
3.55
0.11
-5.67
-7.74
-3.21
0.86
-0.96
-0.43
-0.77

> <PUBCHEM_SHAPE_SELFOVERLAP>
1262.372

> <PUBCHEM_SHAPE_VOLUME>
328.2

> <PUBCHEM_COORDINATE_TYPE>
2
5
10

$$$$
