7050095
  -OEChem-12032416153D

 61 62  0     1  0  0  0  0  0999 V2000
   -9.4105   -1.0255   -0.7936 F   0  0  0  0  0  0  0  0  0  0  0  0
   -7.4241   -1.8843   -1.0971 F   0  0  0  0  0  0  0  0  0  0  0  0
   -8.4780   -2.1583    0.8260 F   0  0  0  0  0  0  0  0  0  0  0  0
    1.4726    2.6827    1.8561 O   0  0  0  0  0  0  0  0  0  0  0  0
    2.6072    4.3771   -1.1812 O   0  0  0  0  0  0  0  0  0  0  0  0
    5.5263    0.7719   -1.4513 O   0  0  0  0  0  0  0  0  0  0  0  0
   -1.7005    2.2021   -0.9278 O   0  0  0  0  0  0  0  0  0  0  0  0
    6.4514   -0.8640    2.0502 O   0  0  0  0  0  0  0  0  0  0  0  0
   -7.6699   -0.0858    0.2939 O   0  0  0  0  0  0  0  0  0  0  0  0
    0.0279    1.0821    0.1226 N   0  0  0  0  0  0  0  0  0  0  0  0
    4.5407   -0.6754    0.0888 N   0  0  0  0  0  0  0  0  0  0  0  0
   -2.1264    0.3675    0.4734 N   0  0  0  0  0  0  0  0  0  0  0  0
    7.8494   -1.8846    0.5407 N   0  0  0  0  0  0  0  0  0  0  0  0
    1.3945    3.1043    0.4927 C   0  0  1  0  0  0  0  0  0  0  0  0
    2.7169    3.7800    0.1093 C   0  0  1  0  0  0  0  0  0  0  0  0
    1.0988    1.8898   -0.4080 C   0  0  1  0  0  0  0  0  0  0  0  0
    3.8991    2.7961    0.1367 C   0  0  0  0  0  0  0  0  0  0  0  0
    3.5497    1.4300   -0.3819 C   0  0  0  0  0  0  0  0  0  0  0  0
    2.3005    1.0138   -0.6384 C   0  0  0  0  0  0  0  0  0  0  0  0
    5.4971   -1.7476   -0.0038 C   0  0  2  0  0  0  0  0  0  0  0  0
    4.6440    0.4915   -0.6473 C   0  0  0  0  0  0  0  0  0  0  0  0
    4.8769   -3.1105    0.3285 C   0  0  0  0  0  0  0  0  0  0  0  0
    3.6764   -3.5077   -0.5548 C   0  0  0  0  0  0  0  0  0  0  0  0
   -1.3205    1.3020   -0.1827 C   0  0  0  0  0  0  0  0  0  0  0  0
    4.0450   -3.5895   -2.0366 C   0  0  0  0  0  0  0  0  0  0  0  0
    3.1148   -4.8536   -0.0882 C   0  0  0  0  0  0  0  0  0  0  0  0
    6.6217   -1.4279    0.9719 C   0  0  0  0  0  0  0  0  0  0  0  0
   -3.5352    0.2512    0.4267 C   0  0  0  0  0  0  0  0  0  0  0  0
   -4.1770   -0.7514    1.1538 C   0  0  0  0  0  0  0  0  0  0  0  0
   -4.2830    1.1402   -0.3455 C   0  0  0  0  0  0  0  0  0  0  0  0
   -5.5664   -0.8651    1.1087 C   0  0  0  0  0  0  0  0  0  0  0  0
   -5.6724    1.0265   -0.3908 C   0  0  0  0  0  0  0  0  0  0  0  0
   -6.3141    0.0238    0.3363 C   0  0  0  0  0  0  0  0  0  0  0  0
   -8.2332   -1.3010   -0.1876 C   0  0  0  0  0  0  0  0  0  0  0  0
    0.5632    3.8155    0.4137 H   0  0  0  0  0  0  0  0  0  0  0  0
    2.9304    4.5910    0.8163 H   0  0  0  0  0  0  0  0  0  0  0  0
    0.7847    2.2580   -1.3934 H   0  0  0  0  0  0  0  0  0  0  0  0
    4.2439    2.6806    1.1721 H   0  0  0  0  0  0  0  0  0  0  0  0
    4.7331    3.2077   -0.4442 H   0  0  0  0  0  0  0  0  0  0  0  0
    2.1232    0.0248   -1.0563 H   0  0  0  0  0  0  0  0  0  0  0  0
    5.9108   -1.7542   -1.0189 H   0  0  0  0  0  0  0  0  0  0  0  0
    0.2553    0.3511    0.7904 H   0  0  0  0  0  0  0  0  0  0  0  0
    5.6537   -3.8838    0.2580 H   0  0  0  0  0  0  0  0  0  0  0  0
    4.5518   -3.1081    1.3784 H   0  0  0  0  0  0  0  0  0  0  0  0
    2.8813   -2.7608   -0.4396 H   0  0  0  0  0  0  0  0  0  0  0  0
    3.7990   -0.7650    0.7782 H   0  0  0  0  0  0  0  0  0  0  0  0
    1.6303    3.4742    2.3984 H   0  0  0  0  0  0  0  0  0  0  0  0
    3.4464    4.8314   -1.3676 H   0  0  0  0  0  0  0  0  0  0  0  0
    3.1964   -3.9493   -2.6286 H   0  0  0  0  0  0  0  0  0  0  0  0
    4.3212   -2.6080   -2.4334 H   0  0  0  0  0  0  0  0  0  0  0  0
    4.8846   -4.2736   -2.1997 H   0  0  0  0  0  0  0  0  0  0  0  0
    2.8091   -4.8044    0.9622 H   0  0  0  0  0  0  0  0  0  0  0  0
    2.2353   -5.1338   -0.6777 H   0  0  0  0  0  0  0  0  0  0  0  0
    3.8584   -5.6516   -0.1886 H   0  0  0  0  0  0  0  0  0  0  0  0
   -1.6505   -0.3162    1.0568 H   0  0  0  0  0  0  0  0  0  0  0  0
    7.9720   -2.3693   -0.3426 H   0  0  0  0  0  0  0  0  0  0  0  0
    8.6823   -1.7488    1.1040 H   0  0  0  0  0  0  0  0  0  0  0  0
   -3.6061   -1.4494    1.7608 H   0  0  0  0  0  0  0  0  0  0  0  0
   -3.8594    1.9410   -0.9346 H   0  0  0  0  0  0  0  0  0  0  0  0
   -6.0539   -1.6461    1.6857 H   0  0  0  0  0  0  0  0  0  0  0  0
   -6.2510    1.7213   -0.9937 H   0  0  0  0  0  0  0  0  0  0  0  0
  1 34  1  0  0  0  0
  2 34  1  0  0  0  0
  3 34  1  0  0  0  0
  4 14  1  0  0  0  0
  4 47  1  0  0  0  0
  5 15  1  0  0  0  0
  5 48  1  0  0  0  0
  6 21  2  0  0  0  0
  7 24  2  0  0  0  0
  8 27  2  0  0  0  0
  9 33  1  0  0  0  0
  9 34  1  0  0  0  0
 10 16  1  0  0  0  0
 10 24  1  0  0  0  0
 10 42  1  0  0  0  0
 11 20  1  0  0  0  0
 11 21  1  0  0  0  0
 11 46  1  0  0  0  0
 12 24  1  0  0  0  0
 12 28  1  0  0  0  0
 12 55  1  0  0  0  0
 13 27  1  0  0  0  0
 13 56  1  0  0  0  0
 13 57  1  0  0  0  0
 14 15  1  0  0  0  0
 14 16  1  0  0  0  0
 14 35  1  0  0  0  0
 15 17  1  0  0  0  0
 15 36  1  0  0  0  0
 16 19  1  0  0  0  0
 16 37  1  0  0  0  0
 17 18  1  0  0  0  0
 17 38  1  0  0  0  0
 17 39  1  0  0  0  0
 18 19  2  0  0  0  0
 18 21  1  0  0  0  0
 19 40  1  0  0  0  0
 20 22  1  0  0  0  0
 20 27  1  0  0  0  0
 20 41  1  0  0  0  0
 22 23  1  0  0  0  0
 22 43  1  0  0  0  0
 22 44  1  0  0  0  0
 23 25  1  0  0  0  0
 23 26  1  0  0  0  0
 23 45  1  0  0  0  0
 25 49  1  0  0  0  0
 25 50  1  0  0  0  0
 25 51  1  0  0  0  0
 26 52  1  0  0  0  0
 26 53  1  0  0  0  0
 26 54  1  0  0  0  0
 28 29  2  0  0  0  0
 28 30  1  0  0  0  0
 29 31  1  0  0  0  0
 29 58  1  0  0  0  0
 30 32  2  0  0  0  0
 30 59  1  0  0  0  0
 31 33  2  0  0  0  0
 31 60  1  0  0  0  0
 32 33  1  0  0  0  0
 32 61  1  0  0  0  0
M  END
> <PUBCHEM_COMPOUND_CID>
7050095

> <PUBCHEM_CONFORMER_RMSD>
1.2

> <PUBCHEM_CONFORMER_DIVERSEORDER>
1
6
29
46
41
11
17
21
36
7
20
27
19
15
43
30
48
4
10
37
42
5
2
12
47
28
50
22
23
8
33
16
26
24
18
32
34
14
3
40
25
35
49
13
9
39
51
44
45
31
38

> <PUBCHEM_MMFF94_PARTIAL_CHARGES>
42
1 -0.34
10 -0.73
11 -0.73
12 -0.55
13 -0.8
14 0.28
15 0.28
16 0.44
17 0.14
18 -0.12
19 -0.29
2 -0.34
20 0.36
21 0.62
24 0.69
27 0.57
28 0.12
29 -0.15
3 -0.34
30 -0.15
31 -0.15
32 -0.15
33 0.08
34 1.3
4 -0.68
40 0.15
42 0.37
46 0.37
47 0.4
48 0.4
5 -0.68
55 0.37
56 0.37
57 0.37
58 0.15
59 0.15
6 -0.57
60 0.15
61 0.15
7 -0.57
8 -0.57
9 -0.36

> <PUBCHEM_EFFECTIVE_ROTOR_COUNT>
12.8

> <PUBCHEM_PHARMACOPHORE_FEATURES>
15
1 10 donor
1 11 donor
1 12 donor
1 13 donor
1 4 acceptor
1 4 donor
1 5 acceptor
1 5 donor
1 6 acceptor
1 7 acceptor
1 8 acceptor
1 9 acceptor
3 23 25 26 hydrophobe
6 14 15 16 17 18 19 rings
6 28 29 30 31 32 33 rings

> <PUBCHEM_HEAVY_ATOM_COUNT>
34

> <PUBCHEM_ATOM_DEF_STEREO_COUNT>
4

> <PUBCHEM_ATOM_UDEF_STEREO_COUNT>
0

> <PUBCHEM_BOND_DEF_STEREO_COUNT>
0

> <PUBCHEM_BOND_UDEF_STEREO_COUNT>
0

> <PUBCHEM_ISOTOPIC_ATOM_COUNT>
0

> <PUBCHEM_COMPONENT_COUNT>
1

> <PUBCHEM_CACTVS_TAUTO_COUNT>
12

> <PUBCHEM_CONFORMER_ID>
006B936F00000001

> <PUBCHEM_MMFF94_ENERGY>
81.0066

> <PUBCHEM_FEATURE_SELFOVERLAP>
76.184

> <PUBCHEM_SHAPE_FINGERPRINT>
10 15 12607406602949282469
11578821 258 8285938865514538831
11828532 37 17822304525437812027
12202916 173 18187645783077318234
12838863 1 18115301165081120578
13008946 335 17841982588874072208
13533116 47 18341615949095353993
13782708 43 18334859416125531085
13989917 61 18412267233138335038
15183329 4 17313104124809392593
15444296 7 18060132163364862079
15475509 35 18201715158854947232
17134984 74 18410862083590244132
1768 124 18343864394355062150
19301679 30 18199469874765138444
1979834 28 17989205898573208782
2026 5 18262233326841461643
21133410 58 18334009531633187274
21197605 99 18412261702058980838
21344244 78 17489871540119455528
23559900 14 18041282174852290921
23569943 247 18261673671702534571
3004659 81 17894917291949697488
5309563 4 18196097638559613286
6004065 56 18410855452029117338
6438161 24 18335697256258862225
6441014 3 17402614043815378638
9831232 110 18408603630793096311
9962374 69 18337945791833910231

> <PUBCHEM_SHAPE_MULTIPOLES>
622.74
24.71
5.28
1.26
48.05
1.08
0.06
20.94
1.61
-9.28
-1.02
-1.08
0.27
0.08

> <PUBCHEM_SHAPE_SELFOVERLAP>
1294.458

> <PUBCHEM_SHAPE_VOLUME>
353.3

> <PUBCHEM_COORDINATE_TYPE>
2
5
10

$$$$
