40777161
  -OEChem-12032416183D

 64 67  0     1  0  0  0  0  0999 V2000
    8.2269    0.1152    1.2893 F   0  0  0  0  0  0  0  0  0  0  0  0
    7.3922    2.0009    1.9783 F   0  0  0  0  0  0  0  0  0  0  0  0
    8.1703    1.8245   -0.0444 F   0  0  0  0  0  0  0  0  0  0  0  0
   -6.2197    1.1488    1.8411 O   0  0  0  0  0  0  0  0  0  0  0  0
   -2.6014   -1.6054    1.9746 N   0  0  2  0  0  0  0  0  0  0  0  0
   -4.4446    1.2483    0.3655 N   0  0  0  0  0  0  0  0  0  0  0  0
   -0.2093   -1.1101   -1.8795 N   0  0  0  0  0  0  0  0  0  0  0  0
    1.9469   -0.0742   -2.1712 N   0  0  0  0  0  0  0  0  0  0  0  0
   -2.2344   -2.5317   -0.4318 C   0  0  2  0  0  0  0  0  0  0  0  0
   -0.8738   -2.1668    0.2239 C   0  0  2  0  0  0  0  0  0  0  0  0
   -3.4953   -0.9019    1.0174 C   0  0  2  0  0  0  0  0  0  0  0  0
   -3.1481   -1.2879   -0.4366 C   0  0  0  0  0  0  0  0  0  0  0  0
   -2.9019   -3.5813    0.4826 C   0  0  0  0  0  0  0  0  0  0  0  0
   -1.1849   -1.4396    1.5632 C   0  0  0  0  0  0  0  0  0  0  0  0
   -2.9311   -3.0501    1.9264 C   0  0  0  0  0  0  0  0  0  0  0  0
   -3.4899    0.6145    1.2216 C   0  0  0  0  0  0  0  0  0  0  0  0
    0.1503   -1.4168   -0.6159 C   0  0  0  0  0  0  0  0  0  0  0  0
    1.3734   -1.0908   -0.0662 C   0  0  0  0  0  0  0  0  0  0  0  0
   -5.7679    1.4751    0.7430 C   0  0  0  0  0  0  0  0  0  0  0  0
    2.2405   -0.4128   -0.8986 C   0  0  0  0  0  0  0  0  0  0  0  0
   -6.6320    2.1754   -0.3269 C   0  0  0  0  0  0  0  0  0  0  0  0
    0.7232   -0.4483   -2.5909 C   0  0  0  0  0  0  0  0  0  0  0  0
    3.5518   -0.0153   -0.4446 C   0  0  0  0  0  0  0  0  0  0  0  0
   -6.6835    1.3231   -1.6041 C   0  0  0  0  0  0  0  0  0  0  0  0
   -8.0658    2.3464    0.2066 C   0  0  0  0  0  0  0  0  0  0  0  0
   -6.0573    3.5650   -0.6412 C   0  0  0  0  0  0  0  0  0  0  0  0
    0.3629   -0.0933   -3.9938 C   0  0  0  0  0  0  0  0  0  0  0  0
    3.6814    0.8414    0.6485 C   0  0  0  0  0  0  0  0  0  0  0  0
    4.6894   -0.4884   -1.0988 C   0  0  0  0  0  0  0  0  0  0  0  0
    4.9485    1.2253    1.0873 C   0  0  0  0  0  0  0  0  0  0  0  0
    5.9565   -0.1045   -0.6600 C   0  0  0  0  0  0  0  0  0  0  0  0
    6.0861    0.7523    0.4331 C   0  0  0  0  0  0  0  0  0  0  0  0
    7.4407    1.1629    0.9020 C   0  0  0  0  0  0  0  0  0  0  0  0
   -2.1094   -2.9308   -1.4438 H   0  0  0  0  0  0  0  0  0  0  0  0
   -0.3822   -3.1216    0.4670 H   0  0  0  0  0  0  0  0  0  0  0  0
   -4.5244   -1.2354    1.2183 H   0  0  0  0  0  0  0  0  0  0  0  0
   -2.6544   -0.4664   -0.9675 H   0  0  0  0  0  0  0  0  0  0  0  0
   -4.0720   -1.5124   -0.9842 H   0  0  0  0  0  0  0  0  0  0  0  0
   -2.3500   -4.5278    0.4454 H   0  0  0  0  0  0  0  0  0  0  0  0
   -3.9213   -3.7856    0.1334 H   0  0  0  0  0  0  0  0  0  0  0  0
   -0.5382   -1.8467    2.3521 H   0  0  0  0  0  0  0  0  0  0  0  0
   -0.9337   -0.3736    1.5171 H   0  0  0  0  0  0  0  0  0  0  0  0
   -3.9204   -3.2237    2.3674 H   0  0  0  0  0  0  0  0  0  0  0  0
   -2.2276   -3.6129    2.5531 H   0  0  0  0  0  0  0  0  0  0  0  0
   -2.5164    1.0560    0.9859 H   0  0  0  0  0  0  0  0  0  0  0  0
   -3.7227    0.8589    2.2645 H   0  0  0  0  0  0  0  0  0  0  0  0
   -4.1302    1.5407   -0.5541 H   0  0  0  0  0  0  0  0  0  0  0  0
    1.6368   -1.3616    0.9495 H   0  0  0  0  0  0  0  0  0  0  0  0
   -7.0239    0.3050   -1.3824 H   0  0  0  0  0  0  0  0  0  0  0  0
   -5.7013    1.2397   -2.0816 H   0  0  0  0  0  0  0  0  0  0  0  0
   -7.3690    1.7556   -2.3416 H   0  0  0  0  0  0  0  0  0  0  0  0
   -8.7090    2.8408   -0.5302 H   0  0  0  0  0  0  0  0  0  0  0  0
   -8.0802    2.9513    1.1207 H   0  0  0  0  0  0  0  0  0  0  0  0
   -8.5180    1.3772    0.4473 H   0  0  0  0  0  0  0  0  0  0  0  0
   -5.0648    3.5027   -1.1002 H   0  0  0  0  0  0  0  0  0  0  0  0
   -5.9558    4.1630    0.2718 H   0  0  0  0  0  0  0  0  0  0  0  0
   -6.7045    4.1139   -1.3345 H   0  0  0  0  0  0  0  0  0  0  0  0
    0.6972   -0.8838   -4.6720 H   0  0  0  0  0  0  0  0  0  0  0  0
   -0.7200    0.0250   -4.0998 H   0  0  0  0  0  0  0  0  0  0  0  0
    0.8375    0.8476   -4.2895 H   0  0  0  0  0  0  0  0  0  0  0  0
    2.8072    1.2257    1.1691 H   0  0  0  0  0  0  0  0  0  0  0  0
    4.6086   -1.1599   -1.9504 H   0  0  0  0  0  0  0  0  0  0  0  0
    5.0278    1.8943    1.9398 H   0  0  0  0  0  0  0  0  0  0  0  0
    6.8370   -0.4786   -1.1754 H   0  0  0  0  0  0  0  0  0  0  0  0
  1 33  1  0  0  0  0
  2 33  1  0  0  0  0
  3 33  1  0  0  0  0
  4 19  2  0  0  0  0
  5 11  1  0  0  0  0
  5 14  1  0  0  0  0
  5 15  1  0  0  0  0
  6 16  1  0  0  0  0
  6 19  1  0  0  0  0
  6 47  1  0  0  0  0
  7 17  2  0  0  0  0
  7 22  1  0  0  0  0
  8 20  1  0  0  0  0
  8 22  2  0  0  0  0
  9 10  1  0  0  0  0
  9 12  1  0  0  0  0
  9 13  1  0  0  0  0
  9 34  1  0  0  0  0
 10 14  1  0  0  0  0
 10 17  1  0  0  0  0
 10 35  1  0  0  0  0
 11 12  1  0  0  0  0
 11 16  1  0  0  0  0
 11 36  1  0  0  0  0
 12 37  1  0  0  0  0
 12 38  1  0  0  0  0
 13 15  1  0  0  0  0
 13 39  1  0  0  0  0
 13 40  1  0  0  0  0
 14 41  1  0  0  0  0
 14 42  1  0  0  0  0
 15 43  1  0  0  0  0
 15 44  1  0  0  0  0
 16 45  1  0  0  0  0
 16 46  1  0  0  0  0
 17 18  1  0  0  0  0
 18 20  2  0  0  0  0
 18 48  1  0  0  0  0
 19 21  1  0  0  0  0
 20 23  1  0  0  0  0
 21 24  1  0  0  0  0
 21 25  1  0  0  0  0
 21 26  1  0  0  0  0
 22 27  1  0  0  0  0
 23 28  2  0  0  0  0
 23 29  1  0  0  0  0
 24 49  1  0  0  0  0
 24 50  1  0  0  0  0
 24 51  1  0  0  0  0
 25 52  1  0  0  0  0
 25 53  1  0  0  0  0
 25 54  1  0  0  0  0
 26 55  1  0  0  0  0
 26 56  1  0  0  0  0
 26 57  1  0  0  0  0
 27 58  1  0  0  0  0
 27 59  1  0  0  0  0
 27 60  1  0  0  0  0
 28 30  1  0  0  0  0
 28 61  1  0  0  0  0
 29 31  2  0  0  0  0
 29 62  1  0  0  0  0
 30 32  2  0  0  0  0
 30 63  1  0  0  0  0
 31 32  1  0  0  0  0
 31 64  1  0  0  0  0
 32 33  1  0  0  0  0
M  END
> <PUBCHEM_COMPOUND_CID>
40777161

> <PUBCHEM_CONFORMER_RMSD>
1

> <PUBCHEM_CONFORMER_DIVERSEORDER>
1
80
51
66
3
67
78
60
54
47
71
37
26
12
59
53
4
61
32
40
39
30
65
16
50
2
5
70
28
64
19
14
31
46
76
62
10
45
56
11
25
79
55
42
22
77
69
72
18
24
15
29
38
6
74
41
36
7
49
23
57
17
20
75
68
63
13
73
33
58
52
8
34
21
9
35
27
44
48
43

> <PUBCHEM_MMFF94_PARTIAL_CHARGES>
32
1 -0.34
10 0.14
11 0.27
14 0.27
15 0.27
16 0.3
17 0.17
18 -0.15
19 0.57
2 -0.34
20 0.31
21 0.06
22 0.48
27 0.14
28 -0.15
29 -0.15
3 -0.34
30 -0.15
31 -0.15
32 -0.14
33 1.16
4 -0.57
47 0.37
48 0.15
5 -0.81
6 -0.73
61 0.15
62 0.15
63 0.15
64 0.15
7 -0.62
8 -0.62

> <PUBCHEM_EFFECTIVE_ROTOR_COUNT>
8.2

> <PUBCHEM_PHARMACOPHORE_FEATURES>
9
1 4 acceptor
1 5 cation
1 6 donor
1 7 acceptor
3 7 8 22 cation
4 21 24 25 26 hydrophobe
6 23 28 29 30 31 32 rings
6 7 8 17 18 20 22 rings
8 5 9 10 11 12 13 14 15 rings

> <PUBCHEM_HEAVY_ATOM_COUNT>
33

> <PUBCHEM_ATOM_DEF_STEREO_COUNT>
3

> <PUBCHEM_ATOM_UDEF_STEREO_COUNT>
0

> <PUBCHEM_BOND_DEF_STEREO_COUNT>
0

> <PUBCHEM_BOND_UDEF_STEREO_COUNT>
0

> <PUBCHEM_ISOTOPIC_ATOM_COUNT>
0

> <PUBCHEM_COMPONENT_COUNT>
1

> <PUBCHEM_CACTVS_TAUTO_COUNT>
2

> <PUBCHEM_CONFORMER_ID>
026E35C900000001

> <PUBCHEM_MMFF94_ENERGY>
88.0108

> <PUBCHEM_FEATURE_SELFOVERLAP>
45.671

> <PUBCHEM_SHAPE_FINGERPRINT>
10190108 129 16008746862993606984
10554248 39 16128390242229058340
10577160 103 17773866670763546171
10985338 8 17828805955099197974
11135609 201 18266750083013606041
11297750 10 17271432828076766219
11374522 101 18261958557047119764
12107183 9 16733275615634646711
12633257 1 15502674701774714803
13103583 49 16009041608823370947
13540713 5 16807315715359093783
13583140 156 17916873533670528014
1361 4 9583253738015871924
13631057 29 11600007626509758487
13673619 4 11241973685137421647
13911987 19 15913332398427060431
14767858 380 14692569905573809719
14904525 67 18196371636299760316
14950920 106 15575864844392098385
15350500 185 18261665988148557205
15669420 48 17417806263022551965
15684973 49 18044110152760323966
17492 54 15697997414462305543
18643901 69 9439406839418914369
19246450 95 16226038952123597109
19304671 126 17699294253242353109
20105231 36 14707204389082734520
21033648 144 17131568201181007102
21033648 29 18334864913040390446
21304303 282 18410008867237630143
21403212 168 16950279586333199971
23522609 53 16806753805093271830
2838139 119 18059577932431836689
312425 54 18114178657971204898
393628 179 18337381661351078013
393628 194 17988652891148007001
4366758 6 18041273289070747295
445580 182 17822012029374013223
4938544 92 18338236067409886294
5104073 3 17096377309421172382
5372103 7 17989203703708081937
54039377 194 13334733510495263240
58083652 198 15502653870840399630
6009941 240 18409167736235151754
6058803 2 16446752901474665695
6086070 43 16916776418836089682
6691757 9 17894624881717602719
6697151 62 17271189535259019654
999808 66 11963388544261765041

> <PUBCHEM_SHAPE_MULTIPOLES>
631.51
22.18
3.29
2.43
16.48
1.02
2.06
-23.74
-9.16
-6.58
-0.98
0.71
0.03
2.34

> <PUBCHEM_SHAPE_SELFOVERLAP>
1354.658

> <PUBCHEM_SHAPE_VOLUME>
351.2

> <PUBCHEM_COORDINATE_TYPE>
2
5
10

$$$$
