26762206
  -OEChem-12032416353D

 62 66  0     1  0  0  0  0  0999 V2000
    3.6920   -0.3316    2.3436 F   0  0  0  0  0  0  0  0  0  0  0  0
    7.6444   -0.4040   -0.2555 F   0  0  0  0  0  0  0  0  0  0  0  0
   -3.8883   -3.2721    2.3461 O   0  0  0  0  0  0  0  0  0  0  0  0
   -3.7518    3.1449    0.2041 O   0  0  0  0  0  0  0  0  0  0  0  0
    1.8150   -2.9119   -1.5931 O   0  0  0  0  0  0  0  0  0  0  0  0
   -2.7718   -1.9475   -0.6203 N   0  0  2  0  0  0  0  0  0  0  0  0
   -4.9957   -1.8468    0.9029 N   0  0  0  0  0  0  0  0  0  0  0  0
    0.1995   -2.5967    0.0306 N   0  0  0  0  0  0  0  0  0  0  0  0
   -1.5104    2.5128    0.0509 N   0  0  0  0  0  0  0  0  0  0  0  0
    2.3063   -1.7538    0.3888 N   0  0  0  0  0  0  0  0  0  0  0  0
   -3.1954   -3.1893    0.0235 C   0  0  1  0  0  0  0  0  0  0  0  0
   -3.8729   -1.1973   -1.2303 C   0  0  1  0  0  0  0  0  0  0  0  0
   -0.8688   -3.2814   -0.6589 C   0  0  1  0  0  0  0  0  0  0  0  0
   -1.8748   -3.8853    0.3322 C   0  0  0  0  0  0  0  0  0  0  0  0
   -1.6875   -2.3209   -1.5229 C   0  0  0  0  0  0  0  0  0  0  0  0
   -5.2004   -1.4282   -0.4731 C   0  0  0  0  0  0  0  0  0  0  0  0
   -3.5126    0.2907   -1.2250 C   0  0  0  0  0  0  0  0  0  0  0  0
   -4.0284   -2.7890    1.2268 C   0  0  0  0  0  0  0  0  0  0  0  0
   -3.2714    0.8241    0.1790 C   0  0  0  0  0  0  0  0  0  0  0  0
   -2.8760    2.2817    0.1462 C   0  0  0  0  0  0  0  0  0  0  0  0
    1.4887   -2.4597   -0.4982 C   0  0  0  0  0  0  0  0  0  0  0  0
   -0.4610    1.4742   -0.0184 C   0  0  0  0  0  0  0  0  0  0  0  0
   -0.8873    3.7772    0.0026 C   0  0  0  0  0  0  0  0  0  0  0  0
    0.8942    2.1843   -0.1075 C   0  0  0  0  0  0  0  0  0  0  0  0
    0.4976    3.6241   -0.0900 C   0  0  0  0  0  0  0  0  0  0  0  0
   -1.4573    5.0415    0.0347 C   0  0  0  0  0  0  0  0  0  0  0  0
    1.3418    4.7224   -0.1520 C   0  0  0  0  0  0  0  0  0  0  0  0
    3.6682   -1.4083    0.2264 C   0  0  0  0  0  0  0  0  0  0  0  0
   -0.6131    6.1547   -0.0280 C   0  0  0  0  0  0  0  0  0  0  0  0
    0.7767    5.9971   -0.1205 C   0  0  0  0  0  0  0  0  0  0  0  0
    4.3335   -0.6958    1.2242 C   0  0  0  0  0  0  0  0  0  0  0  0
    4.3463   -1.7818   -0.9340 C   0  0  0  0  0  0  0  0  0  0  0  0
    5.6767   -0.3565    1.0613 C   0  0  0  0  0  0  0  0  0  0  0  0
    5.6894   -1.4423   -1.0971 C   0  0  0  0  0  0  0  0  0  0  0  0
    6.3546   -0.7297   -0.0992 C   0  0  0  0  0  0  0  0  0  0  0  0
   -3.7985   -3.8181   -0.6455 H   0  0  0  0  0  0  0  0  0  0  0  0
   -4.0345   -1.5059   -2.2717 H   0  0  0  0  0  0  0  0  0  0  0  0
   -0.4276   -4.0668   -1.2833 H   0  0  0  0  0  0  0  0  0  0  0  0
   -1.5558   -3.7520    1.3724 H   0  0  0  0  0  0  0  0  0  0  0  0
   -1.9743   -4.9634    0.1595 H   0  0  0  0  0  0  0  0  0  0  0  0
   -2.0759   -2.8518   -2.4013 H   0  0  0  0  0  0  0  0  0  0  0  0
   -1.1078   -1.4572   -1.8629 H   0  0  0  0  0  0  0  0  0  0  0  0
   -5.8487   -0.5461   -0.4720 H   0  0  0  0  0  0  0  0  0  0  0  0
   -5.7545   -2.2437   -0.9540 H   0  0  0  0  0  0  0  0  0  0  0  0
   -2.6346    0.4638   -1.8583 H   0  0  0  0  0  0  0  0  0  0  0  0
   -4.3222    0.8639   -1.6963 H   0  0  0  0  0  0  0  0  0  0  0  0
   -5.6353   -1.5254    1.6228 H   0  0  0  0  0  0  0  0  0  0  0  0
   -0.0151   -2.1170    0.8997 H   0  0  0  0  0  0  0  0  0  0  0  0
   -2.5415    0.2353    0.7380 H   0  0  0  0  0  0  0  0  0  0  0  0
   -4.1947    0.7770    0.7694 H   0  0  0  0  0  0  0  0  0  0  0  0
   -0.5068    0.8502    0.8808 H   0  0  0  0  0  0  0  0  0  0  0  0
   -0.6300    0.8364   -0.8905 H   0  0  0  0  0  0  0  0  0  0  0  0
    1.5276    1.9350    0.7496 H   0  0  0  0  0  0  0  0  0  0  0  0
    1.4141    1.9255   -1.0351 H   0  0  0  0  0  0  0  0  0  0  0  0
    1.8802   -1.4465    1.2596 H   0  0  0  0  0  0  0  0  0  0  0  0
   -2.5261    5.2007    0.1058 H   0  0  0  0  0  0  0  0  0  0  0  0
    2.4172    4.5989   -0.2232 H   0  0  0  0  0  0  0  0  0  0  0  0
   -1.0387    7.1546   -0.0044 H   0  0  0  0  0  0  0  0  0  0  0  0
    1.4163    6.8740   -0.1679 H   0  0  0  0  0  0  0  0  0  0  0  0
    3.9015   -2.3331   -1.7501 H   0  0  0  0  0  0  0  0  0  0  0  0
    6.1946    0.1982    1.8380 H   0  0  0  0  0  0  0  0  0  0  0  0
    6.2187   -1.7321   -2.0001 H   0  0  0  0  0  0  0  0  0  0  0  0
  1 31  1  0  0  0  0
  2 35  1  0  0  0  0
  3 18  2  0  0  0  0
  4 20  2  0  0  0  0
  5 21  2  0  0  0  0
  6 11  1  0  0  0  0
  6 12  1  0  0  0  0
  6 15  1  0  0  0  0
  7 16  1  0  0  0  0
  7 18  1  0  0  0  0
  7 47  1  0  0  0  0
  8 13  1  0  0  0  0
  8 21  1  0  0  0  0
  8 48  1  0  0  0  0
  9 20  1  0  0  0  0
  9 22  1  0  0  0  0
  9 23  1  0  0  0  0
 10 21  1  0  0  0  0
 10 28  1  0  0  0  0
 10 55  1  0  0  0  0
 11 14  1  0  0  0  0
 11 18  1  0  0  0  0
 11 36  1  0  0  0  0
 12 16  1  0  0  0  0
 12 17  1  0  0  0  0
 12 37  1  0  0  0  0
 13 14  1  0  0  0  0
 13 15  1  0  0  0  0
 13 38  1  0  0  0  0
 14 39  1  0  0  0  0
 14 40  1  0  0  0  0
 15 41  1  0  0  0  0
 15 42  1  0  0  0  0
 16 43  1  0  0  0  0
 16 44  1  0  0  0  0
 17 19  1  0  0  0  0
 17 45  1  0  0  0  0
 17 46  1  0  0  0  0
 19 20  1  0  0  0  0
 19 49  1  0  0  0  0
 19 50  1  0  0  0  0
 22 24  1  0  0  0  0
 22 51  1  0  0  0  0
 22 52  1  0  0  0  0
 23 25  1  0  0  0  0
 23 26  2  0  0  0  0
 24 25  1  0  0  0  0
 24 53  1  0  0  0  0
 24 54  1  0  0  0  0
 25 27  2  0  0  0  0
 26 29  1  0  0  0  0
 26 56  1  0  0  0  0
 27 30  1  0  0  0  0
 27 57  1  0  0  0  0
 28 31  2  0  0  0  0
 28 32  1  0  0  0  0
 29 30  2  0  0  0  0
 29 58  1  0  0  0  0
 30 59  1  0  0  0  0
 31 33  1  0  0  0  0
 32 34  2  0  0  0  0
 32 60  1  0  0  0  0
 33 35  2  0  0  0  0
 33 61  1  0  0  0  0
 34 35  1  0  0  0  0
 34 62  1  0  0  0  0
M  END
> <PUBCHEM_COMPOUND_CID>
26762206

> <PUBCHEM_CONFORMER_RMSD>
1.4

> <PUBCHEM_CONFORMER_DIVERSEORDER>
2
145
84
51
146
148
52
115
113
128
133
154
171
144
188
143
169
105
102
68
14
116
147
125
119
45
77
110
158
96
82
91
179
55
136
138
8
69
64
15
98
152
121
85
93
180
122
123
33
17
74
127
40
72
140
83
178
161
153
149
137
30
197
56
173
170
43
81
31
23
160
174
70
71
16
192
190
157
111
193
21
80
183
86
129
189
118
181
191
53
165
195
76
95
44
168
112
135
18
108
48
99
11
67
167
63
198
107
124
41
26
97
150
176
184
187
6
177
73
75
182
151
36
141
117
89
90
104
10
4
196
92
164
186
3
59
20
130
65
19
106
54
155
12
156
22
185
25
47
162
9
28
5
103
163
88
39
58
172
78
194
175
120
24
7
109
100
1
66
131
42
114
27
94
13
87
139
60
49
62
35
46
37
34
79
166
142
38
50
159
61
126
132
32
134
57
101
29

> <PUBCHEM_MMFF94_PARTIAL_CHARGES>
43
1 -0.19
10 -0.55
11 0.33
12 0.27
13 0.3
15 0.27
16 0.3
18 0.57
19 0.06
2 -0.19
20 0.57
21 0.69
22 0.3
23 0.12
24 0.14
25 -0.14
26 -0.15
27 -0.15
28 0.12
29 -0.15
3 -0.57
30 -0.15
31 0.19
32 -0.15
33 -0.15
34 -0.15
35 0.19
4 -0.57
47 0.37
48 0.37
5 -0.57
55 0.37
56 0.15
57 0.15
58 0.15
59 0.15
6 -0.81
60 0.15
61 0.15
62 0.15
7 -0.73
8 -0.73
9 -0.48

> <PUBCHEM_EFFECTIVE_ROTOR_COUNT>
9.8

> <PUBCHEM_PHARMACOPHORE_FEATURES>
12
1 10 donor
1 3 acceptor
1 4 acceptor
1 5 acceptor
1 6 cation
1 7 donor
1 8 donor
5 6 11 13 14 15 rings
5 9 22 23 24 25 rings
6 23 25 26 27 29 30 rings
6 28 31 32 33 34 35 rings
6 6 7 11 12 16 18 rings

> <PUBCHEM_HEAVY_ATOM_COUNT>
35

> <PUBCHEM_ATOM_DEF_STEREO_COUNT>
3

> <PUBCHEM_ATOM_UDEF_STEREO_COUNT>
0

> <PUBCHEM_BOND_DEF_STEREO_COUNT>
0

> <PUBCHEM_BOND_UDEF_STEREO_COUNT>
0

> <PUBCHEM_ISOTOPIC_ATOM_COUNT>
0

> <PUBCHEM_COMPONENT_COUNT>
1

> <PUBCHEM_CACTVS_TAUTO_COUNT>
9

> <PUBCHEM_CONFORMER_ID>
01985BDE00000002

> <PUBCHEM_MMFF94_ENERGY>
94.91

> <PUBCHEM_FEATURE_SELFOVERLAP>
61.129

> <PUBCHEM_SHAPE_FINGERPRINT>
10256941 240 17540783146407047524
10290309 65 17546727054368708560
10670039 82 18338516344634300630
10675989 125 17181918961991521613
11059845 2 17615660983696599130
11093857 5 18126270953941874440
12788726 201 18334006169237868258
13561361 72 18341599418193148976
13617811 41 18121215385943929885
14363568 33 17976834399109653242
14394314 77 18339927004978080205
144659 178 18410292536420162348
15320467 1 18267303127912482036
15400415 2 17546446675157388524
15968369 153 18271801389328020196
16067690 210 18261945267811125266
17627616 140 17761211420186117277
19611394 137 18116443715784950314
20721686 56 18265892651825294075
21796203 349 18047507609355969481
21859007 373 18129085763949318018
23516275 137 17612330936068618721
3388396 114 18196629840362258239
463206 1 18408046207977898588
469060 322 18340222833455913547
508706 21 18270955744268382510
6036956 94 18191308174014198628
613672 6 18266715013518884992
653340 110 18196367022934178396
6608658 132 18199166452210439287

> <PUBCHEM_SHAPE_MULTIPOLES>
663.22
12.15
8.89
1.31
18.04
16.37
0.38
-11.48
1.18
-4.52
-0.04
-0.06
-1.26
1.16

> <PUBCHEM_SHAPE_SELFOVERLAP>
1439.805

> <PUBCHEM_SHAPE_VOLUME>
362.6

> <PUBCHEM_COORDINATE_TYPE>
2
5
10

$$$$
