75536546
  -OEChem-12032416393D

 42 44  0     1  0  0  0  0  0999 V2000
    1.4122   -1.0930    0.1828 O   0  0  0  0  0  0  0  0  0  0  0  0
    0.3484    2.3310   -0.0413 O   0  0  0  0  0  0  0  0  0  0  0  0
    4.9811    1.6046   -0.2918 O   0  0  0  0  0  0  0  0  0  0  0  0
    3.9704   -0.0569    0.9916 N   0  0  0  0  0  0  0  0  0  0  0  0
   -1.9778    0.2241    0.1188 N   0  0  0  0  0  0  0  0  0  0  0  0
   -6.4698    0.7673   -0.6934 N   0  0  0  0  0  0  0  0  0  0  0  0
    6.1889   -0.3804    0.0760 C   0  0  0  0  0  0  0  0  0  0  0  0
    6.6647   -0.6950   -1.3030 C   0  0  0  0  0  0  0  0  0  0  0  0
    5.9982   -1.7536   -0.4764 C   0  0  0  0  0  0  0  0  0  0  0  0
    1.6926    0.3166    0.2043 C   0  0  1  0  0  0  0  0  0  0  0  0
    0.3590    1.0070    0.4561 C   0  0  2  0  0  0  0  0  0  0  0  0
   -0.5903    0.0917   -0.2948 C   0  0  1  0  0  0  0  0  0  0  0  0
    2.7342    0.6166    1.2675 C   0  0  0  0  0  0  0  0  0  0  0  0
   -0.0058   -1.2747    0.0239 C   0  0  0  0  0  0  0  0  0  0  0  0
    4.9915    0.4971    0.2328 C   0  0  0  0  0  0  0  0  0  0  0  0
   -2.8746   -0.4090   -0.8409 C   0  0  0  0  0  0  0  0  0  0  0  0
   -4.3158   -0.2961   -0.4203 C   0  0  0  0  0  0  0  0  0  0  0  0
   -4.8335   -1.1028    0.5871 C   0  0  0  0  0  0  0  0  0  0  0  0
   -5.1677    0.6148   -1.0238 C   0  0  0  0  0  0  0  0  0  0  0  0
   -6.1684   -0.9754    0.9549 C   0  0  0  0  0  0  0  0  0  0  0  0
   -6.9374   -0.0340    0.2900 C   0  0  0  0  0  0  0  0  0  0  0  0
    6.9531   -0.2466    0.8344 H   0  0  0  0  0  0  0  0  0  0  0  0
    7.7328   -0.7789   -1.4631 H   0  0  0  0  0  0  0  0  0  0  0  0
    6.1169   -0.3019   -2.1508 H   0  0  0  0  0  0  0  0  0  0  0  0
    5.0094   -2.0733   -0.7823 H   0  0  0  0  0  0  0  0  0  0  0  0
    6.6184   -2.5481   -0.0791 H   0  0  0  0  0  0  0  0  0  0  0  0
    2.0891    0.5857   -0.7837 H   0  0  0  0  0  0  0  0  0  0  0  0
    0.1212    1.0296    1.5269 H   0  0  0  0  0  0  0  0  0  0  0  0
   -0.4919    0.3073   -1.3682 H   0  0  0  0  0  0  0  0  0  0  0  0
   -0.3868   -1.6810    0.9680 H   0  0  0  0  0  0  0  0  0  0  0  0
   -0.1905   -2.0083   -0.7666 H   0  0  0  0  0  0  0  0  0  0  0  0
    2.4001    0.2577    2.2471 H   0  0  0  0  0  0  0  0  0  0  0  0
    2.9177    1.6943    1.3347 H   0  0  0  0  0  0  0  0  0  0  0  0
    4.0956   -0.9882    1.3777 H   0  0  0  0  0  0  0  0  0  0  0  0
   -2.2122    1.2150    0.1854 H   0  0  0  0  0  0  0  0  0  0  0  0
    0.5587    2.3030   -0.9900 H   0  0  0  0  0  0  0  0  0  0  0  0
   -2.6385   -1.4750   -0.9519 H   0  0  0  0  0  0  0  0  0  0  0  0
   -2.7522    0.0412   -1.8346 H   0  0  0  0  0  0  0  0  0  0  0  0
   -4.2066   -1.8331    1.0912 H   0  0  0  0  0  0  0  0  0  0  0  0
   -4.8232    1.2739   -1.8147 H   0  0  0  0  0  0  0  0  0  0  0  0
   -6.5935   -1.5936    1.7373 H   0  0  0  0  0  0  0  0  0  0  0  0
   -7.9843    0.1044    0.5395 H   0  0  0  0  0  0  0  0  0  0  0  0
  1 10  1  0  0  0  0
  1 14  1  0  0  0  0
  2 11  1  0  0  0  0
  2 36  1  0  0  0  0
  3 15  2  0  0  0  0
  4 13  1  0  0  0  0
  4 15  1  0  0  0  0
  4 34  1  0  0  0  0
  5 12  1  0  0  0  0
  5 16  1  0  0  0  0
  5 35  1  0  0  0  0
  6 19  1  0  0  0  0
  6 21  2  0  0  0  0
  7  8  1  0  0  0  0
  7  9  1  0  0  0  0
  7 15  1  0  0  0  0
  7 22  1  0  0  0  0
  8  9  1  0  0  0  0
  8 23  1  0  0  0  0
  8 24  1  0  0  0  0
  9 25  1  0  0  0  0
  9 26  1  0  0  0  0
 10 11  1  0  0  0  0
 10 13  1  0  0  0  0
 10 27  1  0  0  0  0
 11 12  1  0  0  0  0
 11 28  1  0  0  0  0
 12 14  1  0  0  0  0
 12 29  1  0  0  0  0
 13 32  1  0  0  0  0
 13 33  1  0  0  0  0
 14 30  1  0  0  0  0
 14 31  1  0  0  0  0
 16 17  1  0  0  0  0
 16 37  1  0  0  0  0
 16 38  1  0  0  0  0
 17 18  1  0  0  0  0
 17 19  2  0  0  0  0
 18 20  2  0  0  0  0
 18 39  1  0  0  0  0
 19 40  1  0  0  0  0
 20 21  1  0  0  0  0
 20 41  1  0  0  0  0
 21 42  1  0  0  0  0
M  END
> <PUBCHEM_COMPOUND_CID>
75536546

> <PUBCHEM_CONFORMER_RMSD>
0.8

> <PUBCHEM_CONFORMER_DIVERSEORDER>
3
99
248
37
223
108
141
236
239
195
57
83
56
227
181
61
34
103
242
97
142
111
139
247
244
241
117
129
209
201
186
146
228
51
53
175
226
80
185
154
52
25
235
237
14
91
234
230
16
218
11
211
202
191
145
126
156
121
221
59
220
88
203
158
233
219
165
138
183
143
65
17
89
24
135
116
187
224
33
127
246
128
32
149
130
205
232
86
229
194
67
171
210
160
196
20
75
204
197
136
157
105
47
122
231
77
42
81
144
70
114
238
95
245
27
133
107
35
137
225
193
85
123
22
206
240
199
164
168
174
166
50
5
243
79
38
100
212
132
31
147
172
18
64
113
21
87
150
159
66
179
208
169
216
140
178
180
68
62
36
6
110
184
112
90
217
104
73
39
98
69
76
170
29
63
101
54
214
188
109
102
55
49
4
96
41
182
213
131
118
72
167
198
94
119
82
58
45
71
215
192
222
12
173
46
84
134
26
74
92
207
155
176
153
190
200
13
28
78
19
148
23
162
163
7
124
161
60
15
115
125
2
177
8
43
44
48
106
1
120
152
151
30
40
189
9
93
10

> <PUBCHEM_MMFF94_PARTIAL_CHARGES>
33
1 -0.56
10 0.28
11 0.28
12 0.27
13 0.3
14 0.28
15 0.63
16 0.41
17 -0.14
18 -0.15
19 0.16
2 -0.68
20 -0.15
21 0.16
22 0.1
23 0.1
24 0.1
25 0.1
26 0.1
3 -0.57
34 0.37
35 0.36
36 0.4
39 0.15
4 -0.73
40 0.15
41 0.15
42 0.15
5 -0.9
6 -0.62
7 -0.1
8 -0.2
9 -0.2

> <PUBCHEM_EFFECTIVE_ROTOR_COUNT>
8.6

> <PUBCHEM_PHARMACOPHORE_FEATURES>
10
1 1 acceptor
1 2 acceptor
1 2 donor
1 3 acceptor
1 4 donor
1 5 cation
1 5 donor
1 6 acceptor
5 1 10 11 12 14 rings
6 6 17 18 19 20 21 rings

> <PUBCHEM_HEAVY_ATOM_COUNT>
21

> <PUBCHEM_ATOM_DEF_STEREO_COUNT>
3

> <PUBCHEM_ATOM_UDEF_STEREO_COUNT>
0

> <PUBCHEM_BOND_DEF_STEREO_COUNT>
0

> <PUBCHEM_BOND_UDEF_STEREO_COUNT>
0

> <PUBCHEM_ISOTOPIC_ATOM_COUNT>
0

> <PUBCHEM_COMPONENT_COUNT>
1

> <PUBCHEM_CACTVS_TAUTO_COUNT>
2

> <PUBCHEM_CONFORMER_ID>
048098A200000003

> <PUBCHEM_MMFF94_ENERGY>
42.8329

> <PUBCHEM_FEATURE_SELFOVERLAP>
50.747

> <PUBCHEM_SHAPE_FINGERPRINT>
10968037 39 13984662560219640731
11089746 13 15769773572267762867
11315181 36 15574716903103261687
11796584 16 15051447258401114798
12166972 35 17895198813633491996
12236239 1 17274819186107477129
13533116 47 17203609281665651082
13590594 115 17561367288026206433
14123256 10 14490474192537484390
1420 363 18408604764152902130
14251752 14 18410291389204185061
14251764 18 16200433581143884600
14251764 46 18408319990651760203
14429380 56 12252189618572899974
14933364 13 18186239532598917749
14955137 171 18411140276753361845
15183329 4 16487259880393064094
20281389 69 16845572024119437905
21150785 3 17458070369877777606
21236236 1 18201158750379732961
21267235 1 18412548708050884593
2297311 6 18113336401714460669
23035841 295 18260264148670466947
23081809 10 16056594404261061953
23402539 116 14189574148341537849
23559900 14 17559944575518487249
28498 318 17561085769809008908
29717793 49 18202283602577896532
3014965 18 18201999893991501086
328311 84 18342179972674411567
34797466 226 15647058144759922470
3545911 37 18413666920720608875
4325135 7 14562529583067506202
4463277 17 18335136509644833841
5207 217 13551194393892185048
59755656 215 18412544275797966886
59755656 520 17489864960598387767

> <PUBCHEM_SHAPE_MULTIPOLES>
399.62
20.34
1.46
1.02
2.5
0.23
0.01
-4.03
2.33
-1.11
0.04
0
-0.03
1.22

> <PUBCHEM_SHAPE_SELFOVERLAP>
830.396

> <PUBCHEM_SHAPE_VOLUME>
227.8

> <PUBCHEM_COORDINATE_TYPE>
2
5
10

$$$$
