38030183
  -OEChem-12032416283D

 49 50  0     1  0  0  0  0  0999 V2000
   -4.6650    1.2023   -1.6887 O   0  0  0  0  0  0  0  0  0  0  0  0
    1.9155   -0.4117    1.8649 O   0  0  0  0  0  0  0  0  0  0  0  0
    3.1894    0.0163   -0.0144 N   0  0  0  0  0  0  0  0  0  0  0  0
   -1.8712   -0.8263   -0.1875 C   0  0  2  0  0  0  0  0  0  0  0  0
   -1.0027   -0.5890    1.0574 C   0  0  0  0  0  0  0  0  0  0  0  0
   -0.3313    0.7973    1.0437 C   0  0  2  0  0  0  0  0  0  0  0  0
   -2.9771    0.2538   -0.2891 C   0  0  1  0  0  0  0  0  0  0  0  0
   -2.4591   -2.2403   -0.1478 C   0  0  0  0  0  0  0  0  0  0  0  0
   -1.3123    1.8945    0.6838 C   0  0  0  0  0  0  0  0  0  0  0  0
   -2.4954    1.6316    0.1010 C   0  0  0  0  0  0  0  0  0  0  0  0
    0.8804    0.8148    0.1050 C   0  0  0  0  0  0  0  0  0  0  0  0
   -3.5749    0.3024   -1.6998 C   0  0  0  0  0  0  0  0  0  0  0  0
   -1.4351   -3.2565   -0.6433 C   0  0  0  0  0  0  0  0  0  0  0  0
   -2.9231   -2.5840    1.2639 C   0  0  0  0  0  0  0  0  0  0  0  0
    2.0330    0.0803    0.7414 C   0  0  0  0  0  0  0  0  0  0  0  0
   -0.9216    3.2991    1.0510 C   0  0  0  0  0  0  0  0  0  0  0  0
    4.3923   -0.6513    0.4609 C   0  0  0  0  0  0  0  0  0  0  0  0
    3.3917    0.5728   -1.3485 C   0  0  0  0  0  0  0  0  0  0  0  0
    5.2744   -0.7695   -0.7724 C   0  0  0  0  0  0  0  0  0  0  0  0
    4.8920    0.4635   -1.5815 C   0  0  0  0  0  0  0  0  0  0  0  0
   -1.2414   -0.7392   -1.0827 H   0  0  0  0  0  0  0  0  0  0  0  0
   -0.2544   -1.3796    1.1664 H   0  0  0  0  0  0  0  0  0  0  0  0
   -1.6166   -0.6106    1.9672 H   0  0  0  0  0  0  0  0  0  0  0  0
   -0.0036    1.0000    2.0732 H   0  0  0  0  0  0  0  0  0  0  0  0
   -3.7902    0.0226    0.4115 H   0  0  0  0  0  0  0  0  0  0  0  0
   -3.3246   -2.3137   -0.8141 H   0  0  0  0  0  0  0  0  0  0  0  0
   -3.1743    2.4616   -0.0827 H   0  0  0  0  0  0  0  0  0  0  0  0
    1.2144    1.8432   -0.0698 H   0  0  0  0  0  0  0  0  0  0  0  0
    0.6522    0.3690   -0.8678 H   0  0  0  0  0  0  0  0  0  0  0  0
   -3.9506   -0.6716   -2.0227 H   0  0  0  0  0  0  0  0  0  0  0  0
   -2.8386    0.6508   -2.4330 H   0  0  0  0  0  0  0  0  0  0  0  0
   -0.5410   -3.2882   -0.0131 H   0  0  0  0  0  0  0  0  0  0  0  0
   -1.1204   -3.0281   -1.6672 H   0  0  0  0  0  0  0  0  0  0  0  0
   -1.8680   -4.2630   -0.6498 H   0  0  0  0  0  0  0  0  0  0  0  0
   -3.5046   -3.5140    1.2348 H   0  0  0  0  0  0  0  0  0  0  0  0
   -3.5823   -1.8216    1.6895 H   0  0  0  0  0  0  0  0  0  0  0  0
   -2.0953   -2.7735    1.9553 H   0  0  0  0  0  0  0  0  0  0  0  0
   -0.6858    3.3614    2.1183 H   0  0  0  0  0  0  0  0  0  0  0  0
   -1.7265    4.0151    0.8526 H   0  0  0  0  0  0  0  0  0  0  0  0
   -0.0470    3.6256    0.4814 H   0  0  0  0  0  0  0  0  0  0  0  0
    4.1501   -1.6184    0.9113 H   0  0  0  0  0  0  0  0  0  0  0  0
    4.8493   -0.0105    1.2230 H   0  0  0  0  0  0  0  0  0  0  0  0
    3.0345    1.6039   -1.4092 H   0  0  0  0  0  0  0  0  0  0  0  0
    2.8296   -0.0447   -2.0574 H   0  0  0  0  0  0  0  0  0  0  0  0
    5.0164   -1.6753   -1.3341 H   0  0  0  0  0  0  0  0  0  0  0  0
    6.3393   -0.8082   -0.5274 H   0  0  0  0  0  0  0  0  0  0  0  0
    5.4005    1.3456   -1.1739 H   0  0  0  0  0  0  0  0  0  0  0  0
    5.1488    0.3778   -2.6408 H   0  0  0  0  0  0  0  0  0  0  0  0
   -5.0260    1.2286   -2.5911 H   0  0  0  0  0  0  0  0  0  0  0  0
  1 12  1  0  0  0  0
  1 49  1  0  0  0  0
  2 15  2  0  0  0  0
  3 15  1  0  0  0  0
  3 17  1  0  0  0  0
  3 18  1  0  0  0  0
  4  5  1  0  0  0  0
  4  7  1  0  0  0  0
  4  8  1  0  0  0  0
  4 21  1  0  0  0  0
  5  6  1  0  0  0  0
  5 22  1  0  0  0  0
  5 23  1  0  0  0  0
  6  9  1  0  0  0  0
  6 11  1  0  0  0  0
  6 24  1  0  0  0  0
  7 10  1  0  0  0  0
  7 12  1  0  0  0  0
  7 25  1  0  0  0  0
  8 13  1  0  0  0  0
  8 14  1  0  0  0  0
  8 26  1  0  0  0  0
  9 10  2  0  0  0  0
  9 16  1  0  0  0  0
 10 27  1  0  0  0  0
 11 15  1  0  0  0  0
 11 28  1  0  0  0  0
 11 29  1  0  0  0  0
 12 30  1  0  0  0  0
 12 31  1  0  0  0  0
 13 32  1  0  0  0  0
 13 33  1  0  0  0  0
 13 34  1  0  0  0  0
 14 35  1  0  0  0  0
 14 36  1  0  0  0  0
 14 37  1  0  0  0  0
 16 38  1  0  0  0  0
 16 39  1  0  0  0  0
 16 40  1  0  0  0  0
 17 19  1  0  0  0  0
 17 41  1  0  0  0  0
 17 42  1  0  0  0  0
 18 20  1  0  0  0  0
 18 43  1  0  0  0  0
 18 44  1  0  0  0  0
 19 20  1  0  0  0  0
 19 45  1  0  0  0  0
 19 46  1  0  0  0  0
 20 47  1  0  0  0  0
 20 48  1  0  0  0  0
M  END
> <PUBCHEM_COMPOUND_CID>
38030183

> <PUBCHEM_CONFORMER_RMSD>
0.8

> <PUBCHEM_CONFORMER_DIVERSEORDER>
1
36
15
53
19
66
31
41
64
78
11
51
33
14
62
22
32
75
56
77
9
29
71
6
45
27
39
48
24
47
37
69
21
52
16
76
30
70
58
42
35
73
25
18
10
65
28
13
8
2
55
61
43
79
26
72
68
60
5
57
23
40
38
50
44
4
74
7
54
46
59
67
34
12
49
17
20
63
3

> <PUBCHEM_MMFF94_PARTIAL_CHARGES>
15
1 -0.68
10 -0.29
11 0.06
12 0.28
15 0.57
16 0.14
17 0.3
18 0.3
2 -0.57
27 0.15
3 -0.66
49 0.4
6 0.14
7 0.14
9 -0.28

> <PUBCHEM_EFFECTIVE_ROTOR_COUNT>
6.8

> <PUBCHEM_PHARMACOPHORE_FEATURES>
6
1 1 acceptor
1 1 donor
1 2 acceptor
3 8 13 14 hydrophobe
5 3 17 18 19 20 rings
6 4 5 6 7 9 10 rings

> <PUBCHEM_HEAVY_ATOM_COUNT>
20

> <PUBCHEM_ATOM_DEF_STEREO_COUNT>
3

> <PUBCHEM_ATOM_UDEF_STEREO_COUNT>
0

> <PUBCHEM_BOND_DEF_STEREO_COUNT>
0

> <PUBCHEM_BOND_UDEF_STEREO_COUNT>
0

> <PUBCHEM_ISOTOPIC_ATOM_COUNT>
0

> <PUBCHEM_COMPONENT_COUNT>
1

> <PUBCHEM_CACTVS_TAUTO_COUNT>
1

> <PUBCHEM_CONFORMER_ID>
02444B6700000001

> <PUBCHEM_MMFF94_ENERGY>
42.5806

> <PUBCHEM_FEATURE_SELFOVERLAP>
30.446

> <PUBCHEM_SHAPE_FINGERPRINT>
10366900 7 17775565321501835430
10616163 171 18411990143787080326
10756046 5 18188773997137764684
10764073 3 15831489009616600219
11127187 94 18411417349541256607
12363563 72 16917068867216831780
12553582 1 18343022198449068770
12596599 1 18115042839502485092
12714826 92 18263083374078488363
12788726 201 18199742544900760489
13149001 5 18194940028798532413
14251757 5 18408605872423120309
14251764 30 17899996111767667483
15163728 17 17753322068233930261
15880784 105 15339115741261664350
16752209 62 18269261387959358529
16945 1 18339911658932883273
17870717 6 18272100374453659518
19433438 15 17095514094003864984
19862831 5 18040999544586756864
20645476 183 17895185589544893763
20871999 31 18261390100312134663
21069387 34 16701730670347306183
21634736 98 18263369260134110068
22182313 1 18124583434735020569
22849339 104 18340778116629025815
22907989 373 18340501018271007396
23402539 116 18272367516882228173
23402655 69 17676207953432047556
23559900 14 18342450478763636456
23566358 2 18122340447904355244
27216 239 14273752775327439812
2748010 2 18052519248159553097
2838139 119 16371830865129566957
4921388 177 18341629095926456086
56616090 13 15792281597527744061
56616090 284 18273205405235528751
574716 61 17895204354320099812
70251023 43 17905887333787124403
81228 2 18131064896914761449
9709674 26 18058717130306316504

> <PUBCHEM_SHAPE_MULTIPOLES>
394.87
9.21
2.93
1.59
11.34
0.49
0.26
1.43
4.72
-3.5
-0.64
-0.24
-0.14
0.37

> <PUBCHEM_SHAPE_SELFOVERLAP>
798.954

> <PUBCHEM_SHAPE_VOLUME>
231.3

> <PUBCHEM_COORDINATE_TYPE>
2
5
10

$$$$
