7113955
  -OEChem-12032416413D

 66 70  0     1  0  0  0  0  0999 V2000
    1.1892   -2.2013   -1.3418 S   0  0  0  0  0  0  0  0  0  0  0  0
   -1.8803   -2.5325   -1.8153 O   0  0  0  0  0  0  0  0  0  0  0  0
   -3.0404    2.4106   -1.5758 O   0  0  0  0  0  0  0  0  0  0  0  0
    1.4564   -3.1102   -2.4406 O   0  0  0  0  0  0  0  0  0  0  0  0
    0.5867   -0.9061   -1.5950 O   0  0  0  0  0  0  0  0  0  0  0  0
    6.3218   -1.2470    1.4485 O   0  0  0  0  0  0  0  0  0  0  0  0
    4.1523    4.0296   -0.0195 O   0  0  0  0  0  0  0  0  0  0  0  0
   -4.1111    1.4176    0.2153 N   0  0  0  0  0  0  0  0  0  0  0  0
   -3.1291   -1.5557   -0.0902 N   0  0  0  0  0  0  0  0  0  0  0  0
   -2.0409    2.5048    0.5161 N   0  0  0  0  0  0  0  0  0  0  0  0
    0.3202   -3.0072   -0.1335 N   0  0  0  0  0  0  0  0  0  0  0  0
   -5.4615   -0.5604   -0.4474 C   0  0  1  0  0  0  0  0  0  0  0  0
   -4.4202   -0.4734    1.7853 C   0  0  2  0  0  0  0  0  0  0  0  0
   -5.6751   -0.9035    1.0240 C   0  0  0  0  0  0  0  0  0  0  0  0
   -5.2184    0.9521   -0.6229 C   0  0  0  0  0  0  0  0  0  0  0  0
   -4.2902   -1.3977   -0.9776 C   0  0  0  0  0  0  0  0  0  0  0  0
   -4.2370    1.0493    1.6359 C   0  0  0  0  0  0  0  0  0  0  0  0
   -3.1912   -1.1938    1.2633 C   0  0  0  0  0  0  0  0  0  0  0  0
   -2.1559   -1.4461    2.0849 C   0  0  0  0  0  0  0  0  0  0  0  0
   -1.9892   -2.1767   -0.6426 C   0  0  0  0  0  0  0  0  0  0  0  0
   -3.0571    2.1503   -0.3701 C   0  0  0  0  0  0  0  0  0  0  0  0
   -0.8715   -2.4057    0.3074 C   0  0  0  0  0  0  0  0  0  0  0  0
   -0.9569   -2.0707    1.5952 C   0  0  0  0  0  0  0  0  0  0  0  0
   -0.6675    2.6865    0.2206 C   0  0  0  0  0  0  0  0  0  0  0  0
    2.7232   -1.9160   -0.5090 C   0  0  0  0  0  0  0  0  0  0  0  0
    0.2227    3.0428    1.2337 C   0  0  0  0  0  0  0  0  0  0  0  0
   -0.2051    2.5078   -1.0832 C   0  0  0  0  0  0  0  0  0  0  0  0
    1.5752    3.2205    0.9429 C   0  0  0  0  0  0  0  0  0  0  0  0
    1.1474    2.6856   -1.3739 C   0  0  0  0  0  0  0  0  0  0  0  0
    2.9105   -0.7449    0.2253 C   0  0  0  0  0  0  0  0  0  0  0  0
    3.7450   -2.8624   -0.5852 C   0  0  0  0  0  0  0  0  0  0  0  0
    2.0376    3.0420   -0.3609 C   0  0  0  0  0  0  0  0  0  0  0  0
    4.1196   -0.5202    0.8834 C   0  0  0  0  0  0  0  0  0  0  0  0
    4.9541   -2.6377    0.0729 C   0  0  0  0  0  0  0  0  0  0  0  0
    5.1414   -1.4667    0.8072 C   0  0  0  0  0  0  0  0  0  0  0  0
    3.4475    3.2278   -0.6647 C   0  0  0  0  0  0  0  0  0  0  0  0
    4.1016    2.4371   -1.7926 C   0  0  0  0  0  0  0  0  0  0  0  0
    6.4462   -0.0285    2.1801 C   0  0  0  0  0  0  0  0  0  0  0  0
   -6.3600   -0.8209   -1.0201 H   0  0  0  0  0  0  0  0  0  0  0  0
   -4.5673   -0.7059    2.8479 H   0  0  0  0  0  0  0  0  0  0  0  0
   -6.5574   -0.3811    1.4135 H   0  0  0  0  0  0  0  0  0  0  0  0
   -5.8570   -1.9784    1.1485 H   0  0  0  0  0  0  0  0  0  0  0  0
   -5.0402    1.1833   -1.6780 H   0  0  0  0  0  0  0  0  0  0  0  0
   -6.1098    1.5127   -0.3161 H   0  0  0  0  0  0  0  0  0  0  0  0
   -4.6486   -2.4166   -1.1783 H   0  0  0  0  0  0  0  0  0  0  0  0
   -3.9429   -1.0051   -1.9416 H   0  0  0  0  0  0  0  0  0  0  0  0
   -5.1124    1.5802    2.0295 H   0  0  0  0  0  0  0  0  0  0  0  0
   -3.3809    1.3656    2.2326 H   0  0  0  0  0  0  0  0  0  0  0  0
   -2.1786   -1.1612    3.1315 H   0  0  0  0  0  0  0  0  0  0  0  0
   -0.1496   -2.2343    2.3011 H   0  0  0  0  0  0  0  0  0  0  0  0
   -2.2805    2.6477    1.4907 H   0  0  0  0  0  0  0  0  0  0  0  0
    0.8963   -3.3669    0.6408 H   0  0  0  0  0  0  0  0  0  0  0  0
   -0.1244    3.1831    2.2542 H   0  0  0  0  0  0  0  0  0  0  0  0
   -0.8377    2.2059   -1.9082 H   0  0  0  0  0  0  0  0  0  0  0  0
    2.2550    3.4931    1.7460 H   0  0  0  0  0  0  0  0  0  0  0  0
    1.4795    2.5467   -2.3992 H   0  0  0  0  0  0  0  0  0  0  0  0
    2.1211   -0.0043    0.3082 H   0  0  0  0  0  0  0  0  0  0  0  0
    3.6176   -3.7842   -1.1455 H   0  0  0  0  0  0  0  0  0  0  0  0
    4.1967    0.4091    1.4374 H   0  0  0  0  0  0  0  0  0  0  0  0
    5.7461   -3.3791    0.0112 H   0  0  0  0  0  0  0  0  0  0  0  0
    5.1442    2.2368   -1.5278 H   0  0  0  0  0  0  0  0  0  0  0  0
    3.6093    1.4718   -1.9347 H   0  0  0  0  0  0  0  0  0  0  0  0
    4.0617    3.0198   -2.7161 H   0  0  0  0  0  0  0  0  0  0  0  0
    6.3794    0.8446    1.5220 H   0  0  0  0  0  0  0  0  0  0  0  0
    5.7292    0.0194    3.0068 H   0  0  0  0  0  0  0  0  0  0  0  0
    7.4471   -0.0184    2.6239 H   0  0  0  0  0  0  0  0  0  0  0  0
  1  4  2  0  0  0  0
  1  5  2  0  0  0  0
  1 11  1  0  0  0  0
  1 25  1  0  0  0  0
  2 20  2  0  0  0  0
  3 21  2  0  0  0  0
  6 35  1  0  0  0  0
  6 38  1  0  0  0  0
  7 36  2  0  0  0  0
  8 15  1  0  0  0  0
  8 17  1  0  0  0  0
  8 21  1  0  0  0  0
  9 16  1  0  0  0  0
  9 18  1  0  0  0  0
  9 20  1  0  0  0  0
 10 21  1  0  0  0  0
 10 24  1  0  0  0  0
 10 51  1  0  0  0  0
 11 22  1  0  0  0  0
 11 52  1  0  0  0  0
 12 14  1  0  0  0  0
 12 15  1  0  0  0  0
 12 16  1  0  0  0  0
 12 39  1  0  0  0  0
 13 14  1  0  0  0  0
 13 17  1  0  0  0  0
 13 18  1  0  0  0  0
 13 40  1  0  0  0  0
 14 41  1  0  0  0  0
 14 42  1  0  0  0  0
 15 43  1  0  0  0  0
 15 44  1  0  0  0  0
 16 45  1  0  0  0  0
 16 46  1  0  0  0  0
 17 47  1  0  0  0  0
 17 48  1  0  0  0  0
 18 19  2  0  0  0  0
 19 23  1  0  0  0  0
 19 49  1  0  0  0  0
 20 22  1  0  0  0  0
 22 23  2  0  0  0  0
 23 50  1  0  0  0  0
 24 26  2  0  0  0  0
 24 27  1  0  0  0  0
 25 30  2  0  0  0  0
 25 31  1  0  0  0  0
 26 28  1  0  0  0  0
 26 53  1  0  0  0  0
 27 29  2  0  0  0  0
 27 54  1  0  0  0  0
 28 32  2  0  0  0  0
 28 55  1  0  0  0  0
 29 32  1  0  0  0  0
 29 56  1  0  0  0  0
 30 33  1  0  0  0  0
 30 57  1  0  0  0  0
 31 34  2  0  0  0  0
 31 58  1  0  0  0  0
 32 36  1  0  0  0  0
 33 35  2  0  0  0  0
 33 59  1  0  0  0  0
 34 35  1  0  0  0  0
 34 60  1  0  0  0  0
 36 37  1  0  0  0  0
 37 61  1  0  0  0  0
 37 62  1  0  0  0  0
 37 63  1  0  0  0  0
 38 64  1  0  0  0  0
 38 65  1  0  0  0  0
 38 66  1  0  0  0  0
M  END
> <PUBCHEM_COMPOUND_CID>
7113955

> <PUBCHEM_CONFORMER_RMSD>
1

> <PUBCHEM_CONFORMER_DIVERSEORDER>
1
91
62
35
2
50
135
138
51
121
44
36
117
108
3
29
148
4
136
127
33
95
107
125
69
104
142
147
118
105
141
80
114
126
30
56
106
28
111
134
132
72
39
120
82
55
144
66
119
15
133
22
124
23
94
96
109
151
71
150
45
139
81
67
89
131
74
42
145
26
78
129
110
84
61
11
83
102
115
16
98
49
37
79
13
68
63
152
85
75
52
90
21
27
92
86
146
153
100
24
77
130
149
128
17
53
101
5
140
64
54
88
19
143
58
70
123
76
97
112
32
137
46
73
40
9
99
25
103
60
93
38
43
20
31
113
10
122
48
47
59
87
7
65
116
6
57
41
14
34
8
18
12

> <PUBCHEM_MMFF94_PARTIAL_CHARGES>
48
1 1.45
10 -0.55
11 -0.75
13 0.14
15 0.3
16 0.3
17 0.3
18 -0.03
19 -0.15
2 -0.57
20 0.62
21 0.69
22 0.21
23 -0.15
24 0.12
25 -0.01
26 -0.15
27 -0.15
28 -0.15
29 -0.15
3 -0.57
30 -0.15
31 -0.15
32 0.09
33 -0.15
34 -0.15
35 0.08
36 0.42
37 0.06
38 0.28
4 -0.65
49 0.15
5 -0.65
50 0.15
51 0.37
52 0.42
53 0.15
54 0.15
55 0.15
56 0.15
57 0.15
58 0.15
59 0.15
6 -0.36
60 0.15
7 -0.57
8 -0.66
9 -0.47

> <PUBCHEM_EFFECTIVE_ROTOR_COUNT>
9

> <PUBCHEM_PHARMACOPHORE_FEATURES>
13
1 10 donor
1 11 donor
1 2 acceptor
1 3 acceptor
1 4 acceptor
1 5 acceptor
1 6 acceptor
1 7 acceptor
6 24 26 27 28 29 32 rings
6 25 30 31 33 34 35 rings
6 8 12 13 14 15 17 rings
6 9 12 13 14 16 18 rings
6 9 18 19 20 22 23 rings

> <PUBCHEM_HEAVY_ATOM_COUNT>
38

> <PUBCHEM_ATOM_DEF_STEREO_COUNT>
2

> <PUBCHEM_ATOM_UDEF_STEREO_COUNT>
0

> <PUBCHEM_BOND_DEF_STEREO_COUNT>
0

> <PUBCHEM_BOND_UDEF_STEREO_COUNT>
0

> <PUBCHEM_ISOTOPIC_ATOM_COUNT>
0

> <PUBCHEM_COMPONENT_COUNT>
1

> <PUBCHEM_CACTVS_TAUTO_COUNT>
9

> <PUBCHEM_CONFORMER_ID>
006C8CE300000001

> <PUBCHEM_MMFF94_ENERGY>
109.7521

> <PUBCHEM_FEATURE_SELFOVERLAP>
67.595

> <PUBCHEM_SHAPE_FINGERPRINT>
10864689 126 17833830465413468788
11135926 11 18190179186231494292
11513181 2 18272376424702267334
11828532 37 17895485833919423195
12107698 1 18334571347788530211
12156800 1 17318125538505179600
12422481 6 18336532915788802360
12608794 3 18192175749107238889
13111901 25 18334851754405366288
13402501 40 18339638928108465619
14004853 49 17905881828092946600
14725015 67 18260825960858338625
15001296 14 18266180728588510932
15264996 151 18113902645686433784
15264996 154 18189071939652428782
15264996 44 18201170896631116598
15406563 185 17699581543768195680
15840311 113 16698668316332725769
16112460 7 18338250279404363577
16120349 306 17983021338143957408
20721686 56 18261111932444151755
20764821 26 18340220616999190788
21344244 246 18194111036187048631
3298306 158 18267032841283333917
373842 8 18409165507184197376
392239 28 18196374719051271330
469060 322 17314237648219862630

> <PUBCHEM_SHAPE_MULTIPOLES>
730.73
12.66
5.26
1.94
3.45
3.08
0.08
-2.56
4.33
4.35
-1.34
0.35
-0.5
-0.28

> <PUBCHEM_SHAPE_SELFOVERLAP>
1578.585

> <PUBCHEM_SHAPE_VOLUME>
400.1

> <PUBCHEM_COORDINATE_TYPE>
2
5
10

$$$$
