75536656
  -OEChem-12032416323D

 43 44  0     1  0  0  0  0  0999 V2000
    5.8813    0.5135    0.0428 S   0  0  0  0  0  0  0  0  0  0  0  0
   -6.5925    0.7249    0.8132 F   0  0  0  0  0  0  0  0  0  0  0  0
   -5.9207   -0.8034   -0.5802 F   0  0  0  0  0  0  0  0  0  0  0  0
    1.7575    0.9059    0.5854 O   0  0  0  0  0  0  0  0  0  0  0  0
    0.7365   -2.4612   -0.1400 O   0  0  0  0  0  0  0  0  0  0  0  0
    6.8568    0.7633    1.0858 O   0  0  0  0  0  0  0  0  0  0  0  0
    5.5333    1.5492   -0.9110 O   0  0  0  0  0  0  0  0  0  0  0  0
   -1.3752   -0.2476   -0.8592 N   0  0  0  0  0  0  0  0  0  0  0  0
    4.4420   -0.0938    0.7290 N   0  0  0  0  0  0  0  0  0  0  0  0
   -0.2576   -0.2413    0.0707 C   0  0  1  0  0  0  0  0  0  0  0  0
   -2.5824    0.2754   -0.2218 C   0  0  0  0  0  0  0  0  0  0  0  0
    0.9206   -1.0808   -0.3875 C   0  0  1  0  0  0  0  0  0  0  0  0
    2.0435   -0.4970    0.4592 C   0  0  1  0  0  0  0  0  0  0  0  0
   -3.2351   -0.8181    0.6326 C   0  0  0  0  0  0  0  0  0  0  0  0
   -3.5505    0.7972   -1.2907 C   0  0  0  0  0  0  0  0  0  0  0  0
    0.3861    1.1282    0.2128 C   0  0  0  0  0  0  0  0  0  0  0  0
   -4.5400   -0.3288    1.2583 C   0  0  0  0  0  0  0  0  0  0  0  0
   -4.8555    1.2871   -0.6660 C   0  0  0  0  0  0  0  0  0  0  0  0
   -5.4908    0.2174    0.2065 C   0  0  0  0  0  0  0  0  0  0  0  0
    3.4192   -0.6873   -0.1544 C   0  0  0  0  0  0  0  0  0  0  0  0
    6.4235   -0.9028   -0.8857 C   0  0  0  0  0  0  0  0  0  0  0  0
   -0.5558   -0.6120    1.0591 H   0  0  0  0  0  0  0  0  0  0  0  0
   -2.3371    1.1296    0.4231 H   0  0  0  0  0  0  0  0  0  0  0  0
    1.1153   -0.9365   -1.4575 H   0  0  0  0  0  0  0  0  0  0  0  0
    2.0326   -0.9253    1.4703 H   0  0  0  0  0  0  0  0  0  0  0  0
   -1.5440   -1.1933   -1.2006 H   0  0  0  0  0  0  0  0  0  0  0  0
   -2.5749   -1.1509    1.4404 H   0  0  0  0  0  0  0  0  0  0  0  0
   -3.4487   -1.7021    0.0168 H   0  0  0  0  0  0  0  0  0  0  0  0
   -3.7759    0.0038   -2.0157 H   0  0  0  0  0  0  0  0  0  0  0  0
   -3.0877    1.6180   -1.8523 H   0  0  0  0  0  0  0  0  0  0  0  0
    0.3948    1.6843   -0.7318 H   0  0  0  0  0  0  0  0  0  0  0  0
   -0.0971    1.7486    0.9734 H   0  0  0  0  0  0  0  0  0  0  0  0
   -5.0207   -1.1566    1.7920 H   0  0  0  0  0  0  0  0  0  0  0  0
   -4.3300    0.4473    2.0042 H   0  0  0  0  0  0  0  0  0  0  0  0
   -4.6700    2.1877   -0.0683 H   0  0  0  0  0  0  0  0  0  0  0  0
   -5.5534    1.5750   -1.4604 H   0  0  0  0  0  0  0  0  0  0  0  0
    3.4519   -0.1911   -1.1306 H   0  0  0  0  0  0  0  0  0  0  0  0
    3.6348   -1.7524   -0.2868 H   0  0  0  0  0  0  0  0  0  0  0  0
    0.5610   -2.5811    0.8087 H   0  0  0  0  0  0  0  0  0  0  0  0
    4.5387   -0.5847    1.6278 H   0  0  0  0  0  0  0  0  0  0  0  0
    7.3960   -0.6618   -1.3217 H   0  0  0  0  0  0  0  0  0  0  0  0
    6.5277   -1.7526   -0.2085 H   0  0  0  0  0  0  0  0  0  0  0  0
    5.7124   -1.1168   -1.6846 H   0  0  0  0  0  0  0  0  0  0  0  0
  1  6  2  0  0  0  0
  1  7  2  0  0  0  0
  1  9  1  0  0  0  0
  1 21  1  0  0  0  0
  2 19  1  0  0  0  0
  3 19  1  0  0  0  0
  4 13  1  0  0  0  0
  4 16  1  0  0  0  0
  5 12  1  0  0  0  0
  5 39  1  0  0  0  0
  8 10  1  0  0  0  0
  8 11  1  0  0  0  0
  8 26  1  0  0  0  0
  9 20  1  0  0  0  0
  9 40  1  0  0  0  0
 10 12  1  0  0  0  0
 10 16  1  0  0  0  0
 10 22  1  0  0  0  0
 11 14  1  0  0  0  0
 11 15  1  0  0  0  0
 11 23  1  0  0  0  0
 12 13  1  0  0  0  0
 12 24  1  0  0  0  0
 13 20  1  0  0  0  0
 13 25  1  0  0  0  0
 14 17  1  0  0  0  0
 14 27  1  0  0  0  0
 14 28  1  0  0  0  0
 15 18  1  0  0  0  0
 15 29  1  0  0  0  0
 15 30  1  0  0  0  0
 16 31  1  0  0  0  0
 16 32  1  0  0  0  0
 17 19  1  0  0  0  0
 17 33  1  0  0  0  0
 17 34  1  0  0  0  0
 18 19  1  0  0  0  0
 18 35  1  0  0  0  0
 18 36  1  0  0  0  0
 20 37  1  0  0  0  0
 20 38  1  0  0  0  0
 21 41  1  0  0  0  0
 21 42  1  0  0  0  0
 21 43  1  0  0  0  0
M  END
> <PUBCHEM_COMPOUND_CID>
75536656

> <PUBCHEM_CONFORMER_RMSD>
1

> <PUBCHEM_CONFORMER_DIVERSEORDER>
1
85
38
25
76
6
93
20
33
81
53
69
9
83
34
92
12
45
84
30
48
31
57
86
15
88
22
90
7
19
91
24
27
79
18
41
36
58
66
28
23
13
78
10
82
94
17
59
67
47
71
37
77
26
80
87
55
54
73
50
42
39
35
3
29
60
16
65
14
11
4
89
62
52
70
68
51
49
74
75
40
43
5
64
56
63
32
61
44
8
21
72
2
46

> <PUBCHEM_MMFF94_PARTIAL_CHARGES>
20
1 1.33
10 0.27
11 0.27
12 0.28
13 0.28
16 0.28
19 0.68
2 -0.34
20 0.36
21 0.11
26 0.36
3 -0.34
39 0.4
4 -0.56
40 0.42
5 -0.68
6 -0.65
7 -0.65
8 -0.9
9 -0.91

> <PUBCHEM_EFFECTIVE_ROTOR_COUNT>
7.2

> <PUBCHEM_PHARMACOPHORE_FEATURES>
10
1 4 acceptor
1 5 acceptor
1 5 donor
1 6 acceptor
1 7 acceptor
1 8 cation
1 8 donor
1 9 donor
5 4 10 12 13 16 rings
6 11 14 15 17 18 19 rings

> <PUBCHEM_HEAVY_ATOM_COUNT>
21

> <PUBCHEM_ATOM_DEF_STEREO_COUNT>
3

> <PUBCHEM_ATOM_UDEF_STEREO_COUNT>
0

> <PUBCHEM_BOND_DEF_STEREO_COUNT>
0

> <PUBCHEM_BOND_UDEF_STEREO_COUNT>
0

> <PUBCHEM_ISOTOPIC_ATOM_COUNT>
0

> <PUBCHEM_COMPONENT_COUNT>
1

> <PUBCHEM_CACTVS_TAUTO_COUNT>
1

> <PUBCHEM_CONFORMER_ID>
0480991000000001

> <PUBCHEM_MMFF94_ENERGY>
28.4524

> <PUBCHEM_FEATURE_SELFOVERLAP>
50.764

> <PUBCHEM_SHAPE_FINGERPRINT>
10 15 17967533506218484008
11287383 113 17748828527282530128
11315181 36 15936132963264007805
12091667 2 18260545624095284429
12166972 35 11239995672298925290
12236239 1 17131833161839386755
12516196 113 18059855069201610160
12916748 109 18410575068237772180
13073987 5 17604427380442278041
13533116 47 17775006744469095974
13590594 115 16702588220312685832
1420 363 18113621175004241978
14251732 16 17458349683884726712
14251752 14 13758077372314110867
14251764 18 18408324389526368497
14251764 46 16845854585649027286
14933364 13 18113059333421583948
15716309 27 14634869747103334257
17834072 8 12391514187341381760
17834076 25 16702020876776245058
18222031 100 7997970198181616106
20281389 69 18272086089371398768
21150785 3 16845286167891164437
21641784 216 18269852959955460340
22079108 93 16588022442162538464
22224240 67 18334574659461652851
23035841 295 17988924457354654638
23198884 109 16272209695403816415
23402539 116 12251900395411325031
23536379 177 16950559965676538464
23559900 14 17603584179630852013
293599 30 18341891905160096502
3009799 131 9655576301180405094
34797466 226 18040727961046278022
3545911 37 18201718457690438995
4325135 7 16732706047347605950
4340502 62 17095240311556493562
4463277 17 18273214188185380776
5104073 3 17604990308720591441
542803 24 18187363220671384345
59755656 520 17632855335088171759

> <PUBCHEM_SHAPE_MULTIPOLES>
388.03
18.01
1.4
1.04
8.36
0.26
-0.01
-3.61
-0.9
0.46
0.2
-0.15
-0.07
0.69

> <PUBCHEM_SHAPE_SELFOVERLAP>
773.968

> <PUBCHEM_SHAPE_VOLUME>
232.2

> <PUBCHEM_COORDINATE_TYPE>
2
5
10

$$$$
