26742993
  -OEChem-12032416193D

 57 59  0     1  0  0  0  0  0999 V2000
    0.9797    3.6978    0.7456 O   0  0  0  0  0  0  0  0  0  0  0  0
    0.0990   -1.3099   -1.6461 O   0  0  0  0  0  0  0  0  0  0  0  0
    5.4086   -1.2830   -0.4762 N   0  0  0  0  0  0  0  0  0  0  0  0
   -0.3438   -2.7989    0.0824 N   0  0  0  0  0  0  0  0  0  0  0  0
    2.1861    3.0821    1.0561 N   0  0  0  0  0  0  0  0  0  0  0  0
   -4.2203   -1.8664    1.9558 N   0  0  0  0  0  0  0  0  0  0  0  0
    2.5616   -0.5140   -0.5760 C   0  0  1  0  0  0  0  0  0  0  0  0
    3.5898    0.2020    0.3319 C   0  0  2  0  0  0  0  0  0  0  0  0
    3.3013   -1.1605   -1.7592 C   0  0  0  0  0  0  0  0  0  0  0  0
    4.7570   -0.7255    0.7096 C   0  0  0  0  0  0  0  0  0  0  0  0
    2.9605    0.8112    1.5855 C   0  0  0  0  0  0  0  0  0  0  0  0
    4.4713   -2.0340   -1.3087 C   0  0  0  0  0  0  0  0  0  0  0  0
    1.6957   -1.5465    0.1558 C   0  0  0  0  0  0  0  0  0  0  0  0
    1.8810    1.7935    1.2334 C   0  0  0  0  0  0  0  0  0  0  0  0
    0.4124   -1.8487   -0.5881 C   0  0  0  0  0  0  0  0  0  0  0  0
    0.5108    1.5393    1.0499 C   0  0  0  0  0  0  0  0  0  0  0  0
   -0.0104    2.7689    0.7451 C   0  0  0  0  0  0  0  0  0  0  0  0
   -1.3613    3.2513    0.4340 C   0  0  0  0  0  0  0  0  0  0  0  0
   -1.6197   -3.2758   -0.4000 C   0  0  0  0  0  0  0  0  0  0  0  0
   -1.8053    2.9195   -1.0085 C   0  0  0  0  0  0  0  0  0  0  0  0
   -3.1948    3.4659   -1.3358 C   0  0  0  0  0  0  0  0  0  0  0  0
   -2.7609   -2.4496    0.1187 C   0  0  0  0  0  0  0  0  0  0  0  0
   -3.5898    3.1606   -2.7719 C   0  0  0  0  0  0  0  0  0  0  0  0
   -3.4124   -1.5333   -0.6994 C   0  0  0  0  0  0  0  0  0  0  0  0
   -3.1993   -2.5773    1.4269 C   0  0  0  0  0  0  0  0  0  0  0  0
   -4.4674   -0.7832   -0.1915 C   0  0  0  0  0  0  0  0  0  0  0  0
   -4.8294   -0.9856    1.1306 C   0  0  0  0  0  0  0  0  0  0  0  0
    1.9075    0.2525   -1.0105 H   0  0  0  0  0  0  0  0  0  0  0  0
    4.0156    1.0275   -0.2600 H   0  0  0  0  0  0  0  0  0  0  0  0
    3.6854   -0.3645   -2.4117 H   0  0  0  0  0  0  0  0  0  0  0  0
    2.6189   -1.7563   -2.3754 H   0  0  0  0  0  0  0  0  0  0  0  0
    5.5048   -0.1578    1.2754 H   0  0  0  0  0  0  0  0  0  0  0  0
    4.4135   -1.5362    1.3640 H   0  0  0  0  0  0  0  0  0  0  0  0
    2.5759    0.0512    2.2736 H   0  0  0  0  0  0  0  0  0  0  0  0
    3.7383    1.3404    2.1535 H   0  0  0  0  0  0  0  0  0  0  0  0
    4.1210   -2.9259   -0.7777 H   0  0  0  0  0  0  0  0  0  0  0  0
    5.0054   -2.3912   -2.1964 H   0  0  0  0  0  0  0  0  0  0  0  0
    2.2356   -2.4876    0.3064 H   0  0  0  0  0  0  0  0  0  0  0  0
    1.3912   -1.2108    1.1488 H   0  0  0  0  0  0  0  0  0  0  0  0
    6.1690   -1.8969   -0.1859 H   0  0  0  0  0  0  0  0  0  0  0  0
   -0.0357    0.6131    1.1367 H   0  0  0  0  0  0  0  0  0  0  0  0
   -0.0033   -3.1729    0.9636 H   0  0  0  0  0  0  0  0  0  0  0  0
   -2.0751    2.8068    1.1386 H   0  0  0  0  0  0  0  0  0  0  0  0
   -1.4135    4.3367    0.5849 H   0  0  0  0  0  0  0  0  0  0  0  0
   -1.7316   -4.3156   -0.0728 H   0  0  0  0  0  0  0  0  0  0  0  0
   -1.6109   -3.2816   -1.4962 H   0  0  0  0  0  0  0  0  0  0  0  0
   -1.7958    1.8311   -1.1517 H   0  0  0  0  0  0  0  0  0  0  0  0
   -1.0740    3.3345   -1.7142 H   0  0  0  0  0  0  0  0  0  0  0  0
   -3.9343    3.0277   -0.6556 H   0  0  0  0  0  0  0  0  0  0  0  0
   -3.2133    4.5508   -1.1808 H   0  0  0  0  0  0  0  0  0  0  0  0
   -2.8859    3.6134   -3.4775 H   0  0  0  0  0  0  0  0  0  0  0  0
   -4.5869    3.5591   -2.9836 H   0  0  0  0  0  0  0  0  0  0  0  0
   -3.6103    2.0808   -2.9513 H   0  0  0  0  0  0  0  0  0  0  0  0
   -3.1064   -1.3923   -1.7323 H   0  0  0  0  0  0  0  0  0  0  0  0
   -2.7306   -3.2758    2.1132 H   0  0  0  0  0  0  0  0  0  0  0  0
   -4.9880   -0.0613   -0.8103 H   0  0  0  0  0  0  0  0  0  0  0  0
   -5.6452   -0.4250    1.5749 H   0  0  0  0  0  0  0  0  0  0  0  0
  1  5  1  0  0  0  0
  1 17  1  0  0  0  0
  2 15  2  0  0  0  0
  3 10  1  0  0  0  0
  3 12  1  0  0  0  0
  3 40  1  0  0  0  0
  4 15  1  0  0  0  0
  4 19  1  0  0  0  0
  4 42  1  0  0  0  0
  5 14  2  0  0  0  0
  6 25  1  0  0  0  0
  6 27  2  0  0  0  0
  7  8  1  0  0  0  0
  7  9  1  0  0  0  0
  7 13  1  0  0  0  0
  7 28  1  0  0  0  0
  8 10  1  0  0  0  0
  8 11  1  0  0  0  0
  8 29  1  0  0  0  0
  9 12  1  0  0  0  0
  9 30  1  0  0  0  0
  9 31  1  0  0  0  0
 10 32  1  0  0  0  0
 10 33  1  0  0  0  0
 11 14  1  0  0  0  0
 11 34  1  0  0  0  0
 11 35  1  0  0  0  0
 12 36  1  0  0  0  0
 12 37  1  0  0  0  0
 13 15  1  0  0  0  0
 13 38  1  0  0  0  0
 13 39  1  0  0  0  0
 14 16  1  0  0  0  0
 16 17  2  0  0  0  0
 16 41  1  0  0  0  0
 17 18  1  0  0  0  0
 18 20  1  0  0  0  0
 18 43  1  0  0  0  0
 18 44  1  0  0  0  0
 19 22  1  0  0  0  0
 19 45  1  0  0  0  0
 19 46  1  0  0  0  0
 20 21  1  0  0  0  0
 20 47  1  0  0  0  0
 20 48  1  0  0  0  0
 21 23  1  0  0  0  0
 21 49  1  0  0  0  0
 21 50  1  0  0  0  0
 22 24  1  0  0  0  0
 22 25  2  0  0  0  0
 23 51  1  0  0  0  0
 23 52  1  0  0  0  0
 23 53  1  0  0  0  0
 24 26  2  0  0  0  0
 24 54  1  0  0  0  0
 25 55  1  0  0  0  0
 26 27  1  0  0  0  0
 26 56  1  0  0  0  0
 27 57  1  0  0  0  0
M  END
> <PUBCHEM_COMPOUND_CID>
26742993

> <PUBCHEM_CONFORMER_RMSD>
1.4

> <PUBCHEM_CONFORMER_DIVERSEORDER>
1
21
36
37
17
69
15
68
67
3
59
45
18
78
60
46
11
5
65
49
70
12
62
7
79
4
53
66
55
38
52
30
10
84
25
9
13
77
40
47
82
57
58
63
54
81
27
32
80
51
76
20
14
71
74
29
48
19
22
33
6
85
44
42
8
39
26
2
83
61
43
56
34
72
28
75
31
23
50
41
35
16
24
73
64

> <PUBCHEM_MMFF94_PARTIAL_CHARGES>
28
1 -0.02
10 0.27
11 0.18
12 0.27
13 0.06
14 0.11
15 0.57
16 -0.15
17 -0.04
18 0.18
19 0.44
2 -0.57
22 -0.14
24 -0.15
25 0.16
26 -0.15
27 0.16
3 -0.9
4 -0.73
40 0.36
41 0.15
42 0.37
5 -0.41
54 0.15
55 0.15
56 0.15
57 0.15
6 -0.62

> <PUBCHEM_EFFECTIVE_ROTOR_COUNT>
11.2

> <PUBCHEM_PHARMACOPHORE_FEATURES>
10
1 2 acceptor
1 23 hydrophobe
1 3 cation
1 3 donor
1 4 donor
1 5 acceptor
1 6 acceptor
5 1 5 14 16 17 rings
6 3 7 8 9 10 12 rings
6 6 22 24 25 26 27 rings

> <PUBCHEM_HEAVY_ATOM_COUNT>
27

> <PUBCHEM_ATOM_DEF_STEREO_COUNT>
2

> <PUBCHEM_ATOM_UDEF_STEREO_COUNT>
0

> <PUBCHEM_BOND_DEF_STEREO_COUNT>
0

> <PUBCHEM_BOND_UDEF_STEREO_COUNT>
0

> <PUBCHEM_ISOTOPIC_ATOM_COUNT>
0

> <PUBCHEM_COMPONENT_COUNT>
1

> <PUBCHEM_CACTVS_TAUTO_COUNT>
2

> <PUBCHEM_CONFORMER_ID>
019810D100000001

> <PUBCHEM_MMFF94_ENERGY>
32.32

> <PUBCHEM_FEATURE_SELFOVERLAP>
50.746

> <PUBCHEM_SHAPE_FINGERPRINT>
10688039 33 18334582377222166123
108634 29 18127967512682196294
11421498 54 17822017514216588642
11513181 2 17559127685650174351
12293681 25 16841091329985797694
12422481 6 17982990522413011976
12633257 1 18270683198265176795
12645989 146 18273496775395929447
12788726 201 18337404759932797418
13402501 40 18412543176792403309
14363568 33 17760381276128317649
14790565 3 17333085829221913504
1601671 61 17984710171530818104
16067689 391 17197146149700410662
20764821 26 18339918196010400433
21860390 5 17844537797439234894
22182313 1 18272358768392347776
3052486 1 18336260129372130056
4409770 3 18338803282060221303
508706 21 18335974303646361109

> <PUBCHEM_SHAPE_MULTIPOLES>
523.98
9.72
5.4
1.88
2.17
3.74
-0.58
-4.33
-0.71
-4.83
-0.42
-0.89
0.74
4.27

> <PUBCHEM_SHAPE_SELFOVERLAP>
1082.122

> <PUBCHEM_SHAPE_VOLUME>
297.7

> <PUBCHEM_COORDINATE_TYPE>
2
5
10

$$$$
