75367087
  -OEChem-12032416393D

 46 48  0     1  0  0  0  0  0999 V2000
    7.4560    1.8811    0.2143 F   0  0  0  0  0  0  0  0  0  0  0  0
   -0.7104    0.6272   -0.7866 O   0  0  0  0  0  0  0  0  0  0  0  0
   -2.1002   -2.4052    0.5469 O   0  0  0  0  0  0  0  0  0  0  0  0
    2.4957   -1.9343    0.9928 O   0  0  0  0  0  0  0  0  0  0  0  0
   -4.2028   -0.3736   -0.6054 N   0  0  0  0  0  0  0  0  0  0  0  0
    1.7949   -0.7813   -0.8946 N   0  0  0  0  0  0  0  0  0  0  0  0
   -5.1032    0.6151   -0.0401 C   0  0  0  0  0  0  0  0  0  0  0  0
   -2.8443   -0.1793   -0.1252 C   0  0  1  0  0  0  0  0  0  0  0  0
   -1.9296   -1.3605   -0.3912 C   0  0  1  0  0  0  0  0  0  0  0  0
   -5.6418    0.2091    1.3265 C   0  0  0  0  0  0  0  0  0  0  0  0
   -6.3792    0.7851   -0.8559 C   0  0  0  0  0  0  0  0  0  0  0  0
   -0.5608   -0.7049   -0.2680 C   0  0  1  0  0  0  0  0  0  0  0  0
   -6.8584    1.1109    1.5168 C   0  0  0  0  0  0  0  0  0  0  0  0
   -7.3335    1.4831    0.1095 C   0  0  0  0  0  0  0  0  0  0  0  0
   -2.1134    0.9370   -0.8531 C   0  0  0  0  0  0  0  0  0  0  0  0
    0.5262   -1.4356   -1.0361 C   0  0  0  0  0  0  0  0  0  0  0  0
    2.6916   -1.0882    0.1244 C   0  0  0  0  0  0  0  0  0  0  0  0
    3.9519   -0.3020    0.1482 C   0  0  0  0  0  0  0  0  0  0  0  0
    4.6283   -0.1052    1.3523 C   0  0  0  0  0  0  0  0  0  0  0  0
    4.4594    0.2388   -1.0332 C   0  0  0  0  0  0  0  0  0  0  0  0
    5.8117    0.6325    1.3749 C   0  0  0  0  0  0  0  0  0  0  0  0
    5.6429    0.9765   -1.0106 C   0  0  0  0  0  0  0  0  0  0  0  0
    6.3191    1.1733    0.1934 C   0  0  0  0  0  0  0  0  0  0  0  0
   -4.6242    1.6014    0.0285 H   0  0  0  0  0  0  0  0  0  0  0  0
   -2.8420    0.0096    0.9572 H   0  0  0  0  0  0  0  0  0  0  0  0
   -2.0865   -1.7620   -1.4001 H   0  0  0  0  0  0  0  0  0  0  0  0
   -5.9644   -0.8400    1.3331 H   0  0  0  0  0  0  0  0  0  0  0  0
   -4.9111    0.3391    2.1308 H   0  0  0  0  0  0  0  0  0  0  0  0
   -6.2212    1.3639   -1.7714 H   0  0  0  0  0  0  0  0  0  0  0  0
   -6.7968   -0.1887   -1.1426 H   0  0  0  0  0  0  0  0  0  0  0  0
   -4.5254   -1.3132   -0.3777 H   0  0  0  0  0  0  0  0  0  0  0  0
   -0.2673   -0.6139    0.7861 H   0  0  0  0  0  0  0  0  0  0  0  0
   -6.5797    2.0178    2.0657 H   0  0  0  0  0  0  0  0  0  0  0  0
   -7.6422    0.6069    2.0913 H   0  0  0  0  0  0  0  0  0  0  0  0
   -8.3703    1.1781   -0.0646 H   0  0  0  0  0  0  0  0  0  0  0  0
   -7.2835    2.5701   -0.0231 H   0  0  0  0  0  0  0  0  0  0  0  0
   -2.3825    0.9884   -1.9144 H   0  0  0  0  0  0  0  0  0  0  0  0
   -2.2863    1.9205   -0.4059 H   0  0  0  0  0  0  0  0  0  0  0  0
    0.3021   -1.4416   -2.1085 H   0  0  0  0  0  0  0  0  0  0  0  0
    0.6113   -2.4724   -0.6932 H   0  0  0  0  0  0  0  0  0  0  0  0
   -1.9626   -2.0417    1.4379 H   0  0  0  0  0  0  0  0  0  0  0  0
    1.9886   -0.0217   -1.5384 H   0  0  0  0  0  0  0  0  0  0  0  0
    4.2469   -0.5146    2.2840 H   0  0  0  0  0  0  0  0  0  0  0  0
    3.9813    0.0833   -1.9957 H   0  0  0  0  0  0  0  0  0  0  0  0
    6.3382    0.7869    2.3121 H   0  0  0  0  0  0  0  0  0  0  0  0
    6.0424    1.3921   -1.9310 H   0  0  0  0  0  0  0  0  0  0  0  0
  1 23  1  0  0  0  0
  2 12  1  0  0  0  0
  2 15  1  0  0  0  0
  3  9  1  0  0  0  0
  3 41  1  0  0  0  0
  4 17  2  0  0  0  0
  5  7  1  0  0  0  0
  5  8  1  0  0  0  0
  5 31  1  0  0  0  0
  6 16  1  0  0  0  0
  6 17  1  0  0  0  0
  6 42  1  0  0  0  0
  7 10  1  0  0  0  0
  7 11  1  0  0  0  0
  7 24  1  0  0  0  0
  8  9  1  0  0  0  0
  8 15  1  0  0  0  0
  8 25  1  0  0  0  0
  9 12  1  0  0  0  0
  9 26  1  0  0  0  0
 10 13  1  0  0  0  0
 10 27  1  0  0  0  0
 10 28  1  0  0  0  0
 11 14  1  0  0  0  0
 11 29  1  0  0  0  0
 11 30  1  0  0  0  0
 12 16  1  0  0  0  0
 12 32  1  0  0  0  0
 13 14  1  0  0  0  0
 13 33  1  0  0  0  0
 13 34  1  0  0  0  0
 14 35  1  0  0  0  0
 14 36  1  0  0  0  0
 15 37  1  0  0  0  0
 15 38  1  0  0  0  0
 16 39  1  0  0  0  0
 16 40  1  0  0  0  0
 17 18  1  0  0  0  0
 18 19  2  0  0  0  0
 18 20  1  0  0  0  0
 19 21  1  0  0  0  0
 19 43  1  0  0  0  0
 20 22  2  0  0  0  0
 20 44  1  0  0  0  0
 21 23  2  0  0  0  0
 21 45  1  0  0  0  0
 22 23  1  0  0  0  0
 22 46  1  0  0  0  0
M  END
> <PUBCHEM_COMPOUND_CID>
75367087

> <PUBCHEM_CONFORMER_RMSD>
0.8

> <PUBCHEM_CONFORMER_DIVERSEORDER>
1
77
18
74
128
82
127
103
13
50
97
70
129
90
76
52
63
42
121
25
15
86
112
114
54
123
117
31
39
120
37
3
96
98
119
122
85
43
91
8
99
102
47
34
59
33
93
124
126
80
28
105
22
118
68
38
108
113
111
104
20
40
30
24
115
32
16
116
67
60
81
62
26
75
56
110
107
7
21
109
94
100
45
44
66
73
106
64
78
10
83
95
48
65
69
35
89
17
84
49
125
5
51
79
29
36
53
4
57
92
9
61
88
72
14
41
12
55
19
101
27
58
11
71
87
23
2
46
6

> <PUBCHEM_MMFF94_PARTIAL_CHARGES>
26
1 -0.19
12 0.28
15 0.28
16 0.3
17 0.54
18 0.09
19 -0.15
2 -0.56
20 -0.15
21 -0.15
22 -0.15
23 0.19
3 -0.68
31 0.36
4 -0.57
41 0.4
42 0.37
43 0.15
44 0.15
45 0.15
46 0.15
5 -0.9
6 -0.73
7 0.27
8 0.27
9 0.28

> <PUBCHEM_EFFECTIVE_ROTOR_COUNT>
8

> <PUBCHEM_PHARMACOPHORE_FEATURES>
10
1 2 acceptor
1 3 acceptor
1 3 donor
1 4 acceptor
1 5 cation
1 5 donor
1 6 donor
5 2 8 9 12 15 rings
5 7 10 11 13 14 rings
6 18 19 20 21 22 23 rings

> <PUBCHEM_HEAVY_ATOM_COUNT>
23

> <PUBCHEM_ATOM_DEF_STEREO_COUNT>
3

> <PUBCHEM_ATOM_UDEF_STEREO_COUNT>
0

> <PUBCHEM_BOND_DEF_STEREO_COUNT>
0

> <PUBCHEM_BOND_UDEF_STEREO_COUNT>
0

> <PUBCHEM_ISOTOPIC_ATOM_COUNT>
0

> <PUBCHEM_COMPONENT_COUNT>
1

> <PUBCHEM_CACTVS_TAUTO_COUNT>
2

> <PUBCHEM_CONFORMER_ID>
047E02AF00000001

> <PUBCHEM_MMFF94_ENERGY>
44.4945

> <PUBCHEM_FEATURE_SELFOVERLAP>
50.747

> <PUBCHEM_SHAPE_FINGERPRINT>
10 15 17894351081229927101
106641 1 18334300886057253043
10670039 82 13901916579009056027
10753850 27 11169911684394248876
10906281 52 18341624710912644095
117890 112 18342738507427631543
11991303 11 13326557571859567805
125118 31 18338234852208798881
12596602 18 16443346459806384841
12616971 3 16805322240653499438
12670543 26 12607405468898691571
12760667 363 8214142962904313655
12954195 1 10303827462302510563
13533116 47 18199469870222699598
13668630 136 9511463316217089200
13685833 64 12107788505928193068
13782708 43 11097859601042026311
13862211 1 7997966873607682909
14251752 14 12967129389422932533
14251764 18 18334013913279771023
14341114 176 17894625942700787410
14341114 328 18040148539914446530
14347332 77 9943537296809322755
14528608 73 16343698824818951847
14931854 50 12966860043734708996
15048467 5 18201719544243142961
15183329 4 13254803425348862819
15188451 53 12107783017076033244
15348495 7 16443356411350929257
15510800 12 10809620356005245856
15706992 2 17774457044215294673
16988056 13 14620498061204225202
1768 124 13551185585357873544
17980427 23 18261954153914006983
190975 80 17095813199984823961
2026 5 11530483346461050937
20281389 69 18342174432356276433
20526848 3 18272934933659373800
21033648 29 17845641664559247562
21150785 3 15482667983747761221
21315764 119 14692574325011209452
21424621 283 18130234748988060433
21637258 2 11746937598696667447
221357 26 14764348228269865322
2215653 11 11959728274342513116
22224240 67 18334577924274977731
23081809 10 17774713178626651807
23198884 109 16056882416726304849
29717793 49 10879994666370146226
300161 21 18410853257184810391
3004659 81 11672061943788144630
3383291 50 10953462933658575973
3472631 163 18131068285928424044
4058900 60 15554181280996573823
4340502 62 16950282888503746114
445580 37 16128379255613115681
465052 167 10737295623078912995
5104073 3 17750515255365510296
5718773 13 10737273654870300904
5758199 1 18272655624058115955
59682541 35 17967819370788993065
59682541 52 13901912198226647220
59755656 215 10519990352584352877
6438161 24 11312058717145808348

> <PUBCHEM_SHAPE_MULTIPOLES>
438.49
21.5
1.71
1.29
4.75
0.46
0.26
-14.52
4.15
-0.38
0.16
-0.1
-0.11
-0.34

> <PUBCHEM_SHAPE_SELFOVERLAP>
921.355

> <PUBCHEM_SHAPE_VOLUME>
249.7

> <PUBCHEM_COORDINATE_TYPE>
2
5
10

$$$$
