75536970
  -OEChem-12032416323D

 36 38  0     1  0  0  0  0  0999 V2000
    0.9872   -2.3548    0.0762 O   0  0  0  0  0  0  0  0  0  0  0  0
   -5.6012   -0.1890    0.1148 O   0  0  0  0  0  0  0  0  0  0  0  0
   -0.8157   -0.8825    0.2081 N   0  0  0  0  0  0  0  0  0  0  0  0
   -3.3468    0.1450   -0.3313 N   0  0  0  0  0  0  0  0  0  0  0  0
    1.2586    0.0226    0.1028 N   0  0  0  0  0  0  0  0  0  0  0  0
   -1.0315    0.5354    0.3899 C   0  0  2  0  0  0  0  0  0  0  0  0
   -2.1749    1.0250   -0.4947 C   0  0  0  0  0  0  0  0  0  0  0  0
    0.3280    1.1452    0.0739 C   0  0  0  0  0  0  0  0  0  0  0  0
   -1.9438   -1.7955    0.2732 C   0  0  0  0  0  0  0  0  0  0  0  0
   -3.0863   -1.2775   -0.5971 C   0  0  0  0  0  0  0  0  0  0  0  0
    0.5473   -1.2138    0.1283 C   0  0  0  0  0  0  0  0  0  0  0  0
    2.6709    0.1996    0.0316 C   0  0  0  0  0  0  0  0  0  0  0  0
   -4.6303    0.5650    0.0121 C   0  0  0  0  0  0  0  0  0  0  0  0
    3.5112   -0.9125   -0.0218 C   0  0  0  0  0  0  0  0  0  0  0  0
    3.2128    1.4846    0.0154 C   0  0  0  0  0  0  0  0  0  0  0  0
   -4.8098    2.0393    0.2711 C   0  0  0  0  0  0  0  0  0  0  0  0
    4.8936   -0.7394   -0.0912 C   0  0  0  0  0  0  0  0  0  0  0  0
    4.5951    1.6578   -0.0541 C   0  0  0  0  0  0  0  0  0  0  0  0
    5.4356    0.5458   -0.1073 C   0  0  0  0  0  0  0  0  0  0  0  0
   -1.2809    0.6817    1.4489 H   0  0  0  0  0  0  0  0  0  0  0  0
   -2.4024    2.0680   -0.2675 H   0  0  0  0  0  0  0  0  0  0  0  0
   -1.8990    0.9752   -1.5555 H   0  0  0  0  0  0  0  0  0  0  0  0
    0.3604    1.5964   -0.9241 H   0  0  0  0  0  0  0  0  0  0  0  0
    0.5882    1.8930    0.8298 H   0  0  0  0  0  0  0  0  0  0  0  0
   -2.2549   -1.8426    1.3230 H   0  0  0  0  0  0  0  0  0  0  0  0
   -1.6306   -2.7977   -0.0347 H   0  0  0  0  0  0  0  0  0  0  0  0
   -2.8204   -1.3569   -1.6581 H   0  0  0  0  0  0  0  0  0  0  0  0
   -3.9846   -1.8809   -0.4349 H   0  0  0  0  0  0  0  0  0  0  0  0
    3.1592   -1.9348   -0.0118 H   0  0  0  0  0  0  0  0  0  0  0  0
    2.5971    2.3778    0.0486 H   0  0  0  0  0  0  0  0  0  0  0  0
   -4.1781    2.3561    1.1053 H   0  0  0  0  0  0  0  0  0  0  0  0
   -5.8523    2.2377    0.5383 H   0  0  0  0  0  0  0  0  0  0  0  0
   -4.5736    2.6128   -0.6291 H   0  0  0  0  0  0  0  0  0  0  0  0
    5.5490   -1.6046   -0.1325 H   0  0  0  0  0  0  0  0  0  0  0  0
    5.0177    2.6583   -0.0683 H   0  0  0  0  0  0  0  0  0  0  0  0
    6.5119    0.6806   -0.1617 H   0  0  0  0  0  0  0  0  0  0  0  0
  1 11  2  0  0  0  0
  2 13  2  0  0  0  0
  3  6  1  0  0  0  0
  3  9  1  0  0  0  0
  3 11  1  0  0  0  0
  4  7  1  0  0  0  0
  4 10  1  0  0  0  0
  4 13  1  0  0  0  0
  5  8  1  0  0  0  0
  5 11  1  0  0  0  0
  5 12  1  0  0  0  0
  6  7  1  0  0  0  0
  6  8  1  0  0  0  0
  6 20  1  0  0  0  0
  7 21  1  0  0  0  0
  7 22  1  0  0  0  0
  8 23  1  0  0  0  0
  8 24  1  0  0  0  0
  9 10  1  0  0  0  0
  9 25  1  0  0  0  0
  9 26  1  0  0  0  0
 10 27  1  0  0  0  0
 10 28  1  0  0  0  0
 12 14  2  0  0  0  0
 12 15  1  0  0  0  0
 13 16  1  0  0  0  0
 14 17  1  0  0  0  0
 14 29  1  0  0  0  0
 15 18  2  0  0  0  0
 15 30  1  0  0  0  0
 16 31  1  0  0  0  0
 16 32  1  0  0  0  0
 16 33  1  0  0  0  0
 17 19  2  0  0  0  0
 17 34  1  0  0  0  0
 18 19  1  0  0  0  0
 18 35  1  0  0  0  0
 19 36  1  0  0  0  0
M  END
> <PUBCHEM_COMPOUND_CID>
75536970

> <PUBCHEM_CONFORMER_RMSD>
0.6

> <PUBCHEM_CONFORMER_DIVERSEORDER>
1
11
10
3
6
8
9
5
2
4
7

> <PUBCHEM_MMFF94_PARTIAL_CHARGES>
24
1 -0.57
10 0.3
11 0.69
12 0.12
13 0.57
14 -0.15
15 -0.15
16 0.06
17 -0.15
18 -0.15
19 -0.15
2 -0.57
29 0.15
3 -0.66
30 0.15
34 0.15
35 0.15
36 0.15
4 -0.66
5 -0.48
6 0.3
7 0.3
8 0.3
9 0.3

> <PUBCHEM_EFFECTIVE_ROTOR_COUNT>
3.2

> <PUBCHEM_PHARMACOPHORE_FEATURES>
5
1 1 acceptor
1 2 acceptor
5 3 5 6 8 11 rings
6 12 14 15 17 18 19 rings
6 3 4 6 7 9 10 rings

> <PUBCHEM_HEAVY_ATOM_COUNT>
19

> <PUBCHEM_ATOM_DEF_STEREO_COUNT>
1

> <PUBCHEM_ATOM_UDEF_STEREO_COUNT>
0

> <PUBCHEM_BOND_DEF_STEREO_COUNT>
0

> <PUBCHEM_BOND_UDEF_STEREO_COUNT>
0

> <PUBCHEM_ISOTOPIC_ATOM_COUNT>
0

> <PUBCHEM_COMPONENT_COUNT>
1

> <PUBCHEM_CACTVS_TAUTO_COUNT>
1

> <PUBCHEM_CONFORMER_ID>
04809A4A00000001

> <PUBCHEM_MMFF94_ENERGY>
56.0357

> <PUBCHEM_FEATURE_SELFOVERLAP>
25.468

> <PUBCHEM_SHAPE_FINGERPRINT>
11401426 45 18342736334068561210
12107183 9 17691688887523713480
12236239 1 17988925556792344833
12390115 104 18199762353680592385
12403259 415 18260821588450171804
12592029 89 18260263006504637138
12596602 18 13623533450386126964
12644460 14 18041558018672728866
12788726 201 17346039944269654593
13533116 47 17846499193471788766
14251764 18 18260544529152937194
14790565 3 18410860940733902001
15196674 1 18410574019690725982
17834072 33 18131066056513174117
17959699 21 18412263930307906296
18186145 218 18114452431606894518
19784866 9 18410008806220994194
200 152 17775283880457640454
20645477 56 18261110785492769581
20645477 70 18201442441733433894
21236236 1 18339361976429221275
21267235 1 18410863148130430991
21279426 13 18268431230810162284
23402539 116 18272364282708180748
23402655 69 18342457067142832308
23559900 14 18343018926459611368
293599 30 18411419471550714257
29717793 49 17561091298149558084
300161 21 18342451560815573024
3004659 81 18408324359593570014
335352 9 18410293593329666102
34797466 226 16916791837315300060
3545911 37 18409450297727895876
3680242 22 18335980849044690810
4214541 1 18411699889464336197
42788 4 18411138030321727821
4340502 62 16950569852823084243
474 4 18040438819046697172
495365 180 17417800795207359408
4990 188 17988647384634831652
5104073 3 18407757057909844418
542803 24 18412826888866865396
543358 83 18411420566677606682
59755656 215 18340494365973314534
59755656 520 17240482520251531618
633830 44 18409443704742314598
69090 78 18411696617105315166
77779 3 18410855490541105540
8272917 22 18341334392741072526
9709674 26 18339367461086608134
9996256 80 18341333379218409227

> <PUBCHEM_SHAPE_MULTIPOLES>
364.33
11.98
1.99
0.65
0.4
0.23
-0.02
-3.92
-0.35
0.35
0.07
0.11
-0.01
-0.18

> <PUBCHEM_SHAPE_SELFOVERLAP>
775.536

> <PUBCHEM_SHAPE_VOLUME>
201.4

> <PUBCHEM_COORDINATE_TYPE>
2
5
10

$$$$
