38030943
  -OEChem-12032416363D

 63 65  0     1  0  0  0  0  0999 V2000
   -0.8776    0.9734    1.0011 O   0  0  0  0  0  0  0  0  0  0  0  0
    4.7040   -4.6916    1.1673 O   0  0  0  0  0  0  0  0  0  0  0  0
   -7.5044   -1.5275   -0.4505 O   0  5  0  0  0  0  0  0  0  0  0  0
   -6.0452   -3.1136   -0.8678 O   0  0  0  0  0  0  0  0  0  0  0  0
    3.9330   -1.3563   -0.1876 N   0  0  0  0  0  0  0  0  0  0  0  0
   -0.8487    3.0868    1.7338 N   0  0  0  0  0  0  0  0  0  0  0  0
   -2.1643    2.7351    1.4963 N   0  0  0  0  0  0  0  0  0  0  0  0
   -6.3234   -1.9498   -0.4902 N   0  3  0  0  0  0  0  0  0  0  0  0
    2.0618    0.6503   -1.4145 C   0  0  1  0  0  0  0  0  0  0  0  0
    3.6078    0.6928   -1.5024 C   0  0  1  0  0  0  0  0  0  0  0  0
    1.5085    2.0304   -1.0280 C   0  0  0  0  0  0  0  0  0  0  0  0
    2.0609    2.5220    0.3233 C   0  0  2  0  0  0  0  0  0  0  0  0
    1.4296    0.1883   -2.7311 C   0  0  0  0  0  0  0  0  0  0  0  0
    3.5629    2.3451    0.4154 C   0  0  0  0  0  0  0  0  0  0  0  0
    4.2388    1.5338   -0.4175 C   0  0  0  0  0  0  0  0  0  0  0  0
    4.2030   -0.7194   -1.4650 C   0  0  0  0  0  0  0  0  0  0  0  0
    1.3540    1.8297    1.4938 C   0  0  0  0  0  0  0  0  0  0  0  0
    0.0508   -0.4127   -2.4774 C   0  0  0  0  0  0  0  0  0  0  0  0
    1.3407    1.3504   -3.7151 C   0  0  0  0  0  0  0  0  0  0  0  0
    4.2777    3.1580    1.4589 C   0  0  0  0  0  0  0  0  0  0  0  0
   -0.1334    2.0286    1.4316 C   0  0  0  0  0  0  0  0  0  0  0  0
    4.4868   -2.7044   -0.1460 C   0  0  0  0  0  0  0  0  0  0  0  0
    4.1613   -3.3778    1.1776 C   0  0  0  0  0  0  0  0  0  0  0  0
   -2.1333    1.4940    1.0700 C   0  0  0  0  0  0  0  0  0  0  0  0
   -3.1981    0.6187    0.6740 C   0  0  0  0  0  0  0  0  0  0  0  0
    4.4511   -5.3699    2.3902 C   0  0  0  0  0  0  0  0  0  0  0  0
   -4.5189    1.0654    0.7123 C   0  0  0  0  0  0  0  0  0  0  0  0
   -2.9129   -0.6794    0.2505 C   0  0  0  0  0  0  0  0  0  0  0  0
   -5.5546    0.2141    0.3274 C   0  0  0  0  0  0  0  0  0  0  0  0
   -3.9486   -1.5308   -0.1344 C   0  0  0  0  0  0  0  0  0  0  0  0
   -5.2694   -1.0839   -0.0959 C   0  0  0  0  0  0  0  0  0  0  0  0
    1.7697   -0.0574   -0.6287 H   0  0  0  0  0  0  0  0  0  0  0  0
    3.9090    1.1489   -2.4541 H   0  0  0  0  0  0  0  0  0  0  0  0
    0.4157    2.0524   -1.0486 H   0  0  0  0  0  0  0  0  0  0  0  0
    1.8325    2.7829   -1.7602 H   0  0  0  0  0  0  0  0  0  0  0  0
    1.8415    3.5983    0.3753 H   0  0  0  0  0  0  0  0  0  0  0  0
    2.0350   -0.5987   -3.1920 H   0  0  0  0  0  0  0  0  0  0  0  0
    5.3230    1.4827   -0.3363 H   0  0  0  0  0  0  0  0  0  0  0  0
    5.2879   -0.6564   -1.6259 H   0  0  0  0  0  0  0  0  0  0  0  0
    3.8044   -1.3263   -2.2843 H   0  0  0  0  0  0  0  0  0  0  0  0
    1.7012    2.2431    2.4484 H   0  0  0  0  0  0  0  0  0  0  0  0
    1.5812    0.7572    1.5213 H   0  0  0  0  0  0  0  0  0  0  0  0
   -0.6486    0.3160   -2.0565 H   0  0  0  0  0  0  0  0  0  0  0  0
    0.1133   -1.2614   -1.7880 H   0  0  0  0  0  0  0  0  0  0  0  0
   -0.3837   -0.7813   -3.4132 H   0  0  0  0  0  0  0  0  0  0  0  0
    0.5676    2.0799   -3.4520 H   0  0  0  0  0  0  0  0  0  0  0  0
    1.0605    0.9640   -4.7030 H   0  0  0  0  0  0  0  0  0  0  0  0
    2.2958    1.8675   -3.8460 H   0  0  0  0  0  0  0  0  0  0  0  0
    4.0574    4.2224    1.3280 H   0  0  0  0  0  0  0  0  0  0  0  0
    5.3649    3.0378    1.4016 H   0  0  0  0  0  0  0  0  0  0  0  0
    3.9668    2.8582    2.4640 H   0  0  0  0  0  0  0  0  0  0  0  0
    4.3239   -0.8089    0.5778 H   0  0  0  0  0  0  0  0  0  0  0  0
    5.5753   -2.6840   -0.2831 H   0  0  0  0  0  0  0  0  0  0  0  0
    4.0794   -3.3147   -0.9619 H   0  0  0  0  0  0  0  0  0  0  0  0
    3.0749   -3.4340    1.3186 H   0  0  0  0  0  0  0  0  0  0  0  0
    4.5955   -2.8098    2.0095 H   0  0  0  0  0  0  0  0  0  0  0  0
    4.8857   -6.3709    2.3249 H   0  0  0  0  0  0  0  0  0  0  0  0
    3.3743   -5.4672    2.5596 H   0  0  0  0  0  0  0  0  0  0  0  0
    4.9183   -4.8407    3.2264 H   0  0  0  0  0  0  0  0  0  0  0  0
   -4.7640    2.0733    1.0389 H   0  0  0  0  0  0  0  0  0  0  0  0
   -1.8967   -1.0632    0.2075 H   0  0  0  0  0  0  0  0  0  0  0  0
   -6.5714    0.5962    0.3698 H   0  0  0  0  0  0  0  0  0  0  0  0
   -3.6894   -2.5353   -0.4592 H   0  0  0  0  0  0  0  0  0  0  0  0
  1 21  1  0  0  0  0
  1 24  1  0  0  0  0
  2 23  1  0  0  0  0
  2 26  1  0  0  0  0
  3  8  1  0  0  0  0
  4  8  2  0  0  0  0
  5 16  1  0  0  0  0
  5 22  1  0  0  0  0
  5 52  1  0  0  0  0
  6  7  1  0  0  0  0
  6 21  2  0  0  0  0
  7 24  2  0  0  0  0
  8 31  1  0  0  0  0
  9 10  1  0  0  0  0
  9 11  1  0  0  0  0
  9 13  1  0  0  0  0
  9 32  1  0  0  0  0
 10 15  1  0  0  0  0
 10 16  1  0  0  0  0
 10 33  1  0  0  0  0
 11 12  1  0  0  0  0
 11 34  1  0  0  0  0
 11 35  1  0  0  0  0
 12 14  1  0  0  0  0
 12 17  1  0  0  0  0
 12 36  1  0  0  0  0
 13 18  1  0  0  0  0
 13 19  1  0  0  0  0
 13 37  1  0  0  0  0
 14 15  2  0  0  0  0
 14 20  1  0  0  0  0
 15 38  1  0  0  0  0
 16 39  1  0  0  0  0
 16 40  1  0  0  0  0
 17 21  1  0  0  0  0
 17 41  1  0  0  0  0
 17 42  1  0  0  0  0
 18 43  1  0  0  0  0
 18 44  1  0  0  0  0
 18 45  1  0  0  0  0
 19 46  1  0  0  0  0
 19 47  1  0  0  0  0
 19 48  1  0  0  0  0
 20 49  1  0  0  0  0
 20 50  1  0  0  0  0
 20 51  1  0  0  0  0
 22 23  1  0  0  0  0
 22 53  1  0  0  0  0
 22 54  1  0  0  0  0
 23 55  1  0  0  0  0
 23 56  1  0  0  0  0
 24 25  1  0  0  0  0
 25 27  2  0  0  0  0
 25 28  1  0  0  0  0
 26 57  1  0  0  0  0
 26 58  1  0  0  0  0
 26 59  1  0  0  0  0
 27 29  1  0  0  0  0
 27 60  1  0  0  0  0
 28 30  2  0  0  0  0
 28 61  1  0  0  0  0
 29 31  2  0  0  0  0
 29 62  1  0  0  0  0
 30 31  1  0  0  0  0
 30 63  1  0  0  0  0
M  CHG  2   3  -1   8   1
M  END
> <PUBCHEM_COMPOUND_CID>
38030943

> <PUBCHEM_CONFORMER_RMSD>
1

> <PUBCHEM_CONFORMER_DIVERSEORDER>
1
35
72
45
43
9
81
89
96
31
29
53
7
109
27
47
48
105
107
101
68
32
108
2
73
36
57
10
90
33
100
98
102
83
63
4
78
87
67
37
50
19
16
84
49
77
52
23
69
25
11
95
20
103
18
12
86
92
111
51
46
56
22
58
66
28
91
39
8
59
17
30
55
44
34
94
97
15
14
80
24
79
62
54
64
6
93
40
61
99
76
42
82
13
88
104
26
5
65
70
75
41
110
74
60
71
85
21
38
106
3

> <PUBCHEM_MMFF94_PARTIAL_CHARGES>
32
1 -0.28
10 0.14
12 0.14
14 -0.28
15 -0.29
16 0.27
17 0.18
2 -0.56
20 0.14
21 0.3
22 0.27
23 0.28
24 0.43
25 0.05
26 0.28
27 -0.15
28 -0.15
29 -0.15
3 -0.52
30 -0.15
31 0.13
38 0.15
4 -0.52
5 -0.9
52 0.36
6 -0.34
60 0.15
61 0.15
62 0.15
63 0.15
7 -0.34
8 0.91

> <PUBCHEM_EFFECTIVE_ROTOR_COUNT>
10.8

> <PUBCHEM_PHARMACOPHORE_FEATURES>
10
1 2 acceptor
1 3 acceptor
1 3 anion
1 4 acceptor
1 5 cation
1 5 donor
3 13 18 19 hydrophobe
5 1 6 7 21 24 rings
6 25 27 28 29 30 31 rings
6 9 10 11 12 14 15 rings

> <PUBCHEM_HEAVY_ATOM_COUNT>
31

> <PUBCHEM_ATOM_DEF_STEREO_COUNT>
3

> <PUBCHEM_ATOM_UDEF_STEREO_COUNT>
0

> <PUBCHEM_BOND_DEF_STEREO_COUNT>
0

> <PUBCHEM_BOND_UDEF_STEREO_COUNT>
0

> <PUBCHEM_ISOTOPIC_ATOM_COUNT>
0

> <PUBCHEM_COMPONENT_COUNT>
1

> <PUBCHEM_CACTVS_TAUTO_COUNT>
1

> <PUBCHEM_CONFORMER_ID>
02444E5F00000001

> <PUBCHEM_MMFF94_ENERGY>
63.7505

> <PUBCHEM_FEATURE_SELFOVERLAP>
50.827

> <PUBCHEM_SHAPE_FINGERPRINT>
10622 236 18263642857745654994
11135609 149 18188750774349464782
11963148 33 18055060219516168623
12166972 35 18260555502320001871
12655364 74 11161960123846180642
12977781 61 17900227885709440500
131258 38 18340759438301597502
13402501 40 17631180851988360653
13533116 47 18408888446769455991
14068700 675 18339640014893947482
14674994 50 16959569132242384262
15003188 105 18341900701353371622
15419009 47 17608645020947024029
16120349 67 10302368479334658642
17492 89 17917164796739932876
18681886 176 16773528719939590692
19315092 285 18409446947579642874
20775438 99 18187642544049653914
208703 8 18272655602045846406
21197605 99 16915104168834462629
21315764 119 17967530199489344159
21623969 137 17059507368970028701
23559900 14 17415864421475599020
25222932 49 17986107641724161831
439807 62 18341338881382478999
484985 159 17035559662341313994
5104073 3 17489318485801968921
513532 50 16733266875661296004
59025328 239 17677340415980321044
6679774 75 17482526978914267368
6823239 73 16914847789325743380

> <PUBCHEM_SHAPE_MULTIPOLES>
594.56
14.42
5.32
2.59
21.99
7.62
-1.93
14.28
0.83
-8.81
4.47
-2.44
-0.48
-3.98

> <PUBCHEM_SHAPE_SELFOVERLAP>
1239.561

> <PUBCHEM_SHAPE_VOLUME>
338.6

> <PUBCHEM_COORDINATE_TYPE>
2
5
10

$$$$
