11941639
  -OEChem-12032416163D

 59 62  0     1  0  0  0  0  0999 V2000
    0.0997    2.9020   -1.7511 O   0  0  0  0  0  0  0  0  0  0  0  0
    1.0489    2.4671    1.1894 O   0  0  0  0  0  0  0  0  0  0  0  0
   -3.8890    2.0405   -0.2586 O   0  0  0  0  0  0  0  0  0  0  0  0
    2.2875    0.7129   -1.7632 N   0  0  0  0  0  0  0  0  0  0  0  0
   -1.9836    1.8004    1.0469 N   0  0  0  0  0  0  0  0  0  0  0  0
    3.6956   -0.3085   -0.1884 N   0  0  0  0  0  0  0  0  0  0  0  0
   -3.8817    0.6082    1.5668 N   0  0  0  0  0  0  0  0  0  0  0  0
    3.2031   -1.3826   -2.2887 N   0  0  0  0  0  0  0  0  0  0  0  0
    0.9455    1.5969    0.0497 C   0  0  1  0  0  0  0  0  0  0  0  0
   -0.3042    1.9972   -0.7100 C   0  0  1  0  0  0  0  0  0  0  0  0
    2.0707    1.8686   -0.9206 C   0  0  2  0  0  0  0  0  0  0  0  0
   -1.1440    2.7202    0.3182 C   0  0  2  0  0  0  0  0  0  0  0  0
    1.5297    3.0238   -1.7428 C   0  0  0  0  0  0  0  0  0  0  0  0
   -0.0914    3.3382    1.2212 C   0  0  0  0  0  0  0  0  0  0  0  0
    3.0859   -0.3580   -1.4027 C   0  0  0  0  0  0  0  0  0  0  0  0
   -3.3054    1.5304    0.6970 C   0  0  0  0  0  0  0  0  0  0  0  0
    5.1425   -1.3312    1.4598 C   0  0  0  0  0  0  0  0  0  0  0  0
    4.4659   -1.3690    0.1308 C   0  0  0  0  0  0  0  0  0  0  0  0
    4.6510   -2.4587   -0.6954 C   0  0  0  0  0  0  0  0  0  0  0  0
    3.9887   -2.4103   -1.9050 C   0  0  0  0  0  0  0  0  0  0  0  0
   -5.2449    0.1516    1.4324 C   0  0  0  0  0  0  0  0  0  0  0  0
    4.7036   -2.5333    2.3523 C   0  0  0  0  0  0  0  0  0  0  0  0
    4.8651   -0.0525    2.3178 C   0  0  0  0  0  0  0  0  0  0  0  0
    6.6934   -1.4003    1.3067 C   0  0  0  0  0  0  0  0  0  0  0  0
   -5.3458   -1.0669    0.5611 C   0  0  0  0  0  0  0  0  0  0  0  0
   -5.5322   -0.9194   -0.8084 C   0  0  0  0  0  0  0  0  0  0  0  0
   -5.2515   -2.3306    1.1325 C   0  0  0  0  0  0  0  0  0  0  0  0
   -5.6258   -2.0514   -1.6180 C   0  0  0  0  0  0  0  0  0  0  0  0
   -5.3450   -3.4626    0.3228 C   0  0  0  0  0  0  0  0  0  0  0  0
   -5.5321   -3.3229   -1.0525 C   0  0  0  0  0  0  0  0  0  0  0  0
    0.9008    0.5709    0.4287 H   0  0  0  0  0  0  0  0  0  0  0  0
   -0.8051    1.1493   -1.1880 H   0  0  0  0  0  0  0  0  0  0  0  0
    3.0051    2.1776   -0.4379 H   0  0  0  0  0  0  0  0  0  0  0  0
   -1.7770    3.4977   -0.1229 H   0  0  0  0  0  0  0  0  0  0  0  0
    1.7693    3.9838   -1.2723 H   0  0  0  0  0  0  0  0  0  0  0  0
    1.8970    3.0470   -2.7735 H   0  0  0  0  0  0  0  0  0  0  0  0
    0.2329    4.3111    0.8356 H   0  0  0  0  0  0  0  0  0  0  0  0
   -0.4188    3.4699    2.2569 H   0  0  0  0  0  0  0  0  0  0  0  0
    1.7964    0.6418   -2.6472 H   0  0  0  0  0  0  0  0  0  0  0  0
   -1.5745    1.2756    1.8142 H   0  0  0  0  0  0  0  0  0  0  0  0
   -3.3149    0.2231    2.3161 H   0  0  0  0  0  0  0  0  0  0  0  0
    5.2688   -3.3092   -0.4391 H   0  0  0  0  0  0  0  0  0  0  0  0
    4.0735   -3.2209   -2.6208 H   0  0  0  0  0  0  0  0  0  0  0  0
   -5.6204   -0.0628    2.4395 H   0  0  0  0  0  0  0  0  0  0  0  0
   -5.8645    0.9620    1.0300 H   0  0  0  0  0  0  0  0  0  0  0  0
    3.6170   -2.5326    2.4984 H   0  0  0  0  0  0  0  0  0  0  0  0
    5.1763   -2.4894    3.3404 H   0  0  0  0  0  0  0  0  0  0  0  0
    4.9767   -3.4959    1.9061 H   0  0  0  0  0  0  0  0  0  0  0  0
    3.7938    0.0551    2.5251 H   0  0  0  0  0  0  0  0  0  0  0  0
    5.3898   -0.0885    3.2794 H   0  0  0  0  0  0  0  0  0  0  0  0
    5.1936    0.8513    1.7913 H   0  0  0  0  0  0  0  0  0  0  0  0
    7.1930   -1.3414    2.2807 H   0  0  0  0  0  0  0  0  0  0  0  0
    7.0172   -2.3340    0.8337 H   0  0  0  0  0  0  0  0  0  0  0  0
    7.0605   -0.5720    0.6893 H   0  0  0  0  0  0  0  0  0  0  0  0
   -5.6106    0.0646   -1.2614 H   0  0  0  0  0  0  0  0  0  0  0  0
   -5.1039   -2.4511    2.2022 H   0  0  0  0  0  0  0  0  0  0  0  0
   -5.7723   -1.9428   -2.6886 H   0  0  0  0  0  0  0  0  0  0  0  0
   -5.2717   -4.4528    0.7629 H   0  0  0  0  0  0  0  0  0  0  0  0
   -5.6050   -4.2043   -1.6829 H   0  0  0  0  0  0  0  0  0  0  0  0
  1 10  1  0  0  0  0
  1 13  1  0  0  0  0
  2  9  1  0  0  0  0
  2 14  1  0  0  0  0
  3 16  2  0  0  0  0
  4 11  1  0  0  0  0
  4 15  1  0  0  0  0
  4 39  1  0  0  0  0
  5 12  1  0  0  0  0
  5 16  1  0  0  0  0
  5 40  1  0  0  0  0
  6 15  1  0  0  0  0
  6 18  2  0  0  0  0
  7 16  1  0  0  0  0
  7 21  1  0  0  0  0
  7 41  1  0  0  0  0
  8 15  2  0  0  0  0
  8 20  1  0  0  0  0
  9 10  1  0  0  0  0
  9 11  1  0  0  0  0
  9 31  1  0  0  0  0
 10 12  1  0  0  0  0
 10 32  1  0  0  0  0
 11 13  1  0  0  0  0
 11 33  1  0  0  0  0
 12 14  1  0  0  0  0
 12 34  1  0  0  0  0
 13 35  1  0  0  0  0
 13 36  1  0  0  0  0
 14 37  1  0  0  0  0
 14 38  1  0  0  0  0
 17 18  1  0  0  0  0
 17 22  1  0  0  0  0
 17 23  1  0  0  0  0
 17 24  1  0  0  0  0
 18 19  1  0  0  0  0
 19 20  2  0  0  0  0
 19 42  1  0  0  0  0
 20 43  1  0  0  0  0
 21 25  1  0  0  0  0
 21 44  1  0  0  0  0
 21 45  1  0  0  0  0
 22 46  1  0  0  0  0
 22 47  1  0  0  0  0
 22 48  1  0  0  0  0
 23 49  1  0  0  0  0
 23 50  1  0  0  0  0
 23 51  1  0  0  0  0
 24 52  1  0  0  0  0
 24 53  1  0  0  0  0
 24 54  1  0  0  0  0
 25 26  2  0  0  0  0
 25 27  1  0  0  0  0
 26 28  1  0  0  0  0
 26 55  1  0  0  0  0
 27 29  2  0  0  0  0
 27 56  1  0  0  0  0
 28 30  2  0  0  0  0
 28 57  1  0  0  0  0
 29 30  1  0  0  0  0
 29 58  1  0  0  0  0
 30 59  1  0  0  0  0
M  END
> <PUBCHEM_COMPOUND_CID>
11941639

> <PUBCHEM_CONFORMER_RMSD>
1

> <PUBCHEM_CONFORMER_DIVERSEORDER>
1
86
175
280
92
251
120
93
240
276
287
144
226
206
130
74
277
154
196
328
193
324
89
271
317
192
91
20
216
164
331
292
177
84
168
83
174
87
260
106
45
250
247
61
190
187
329
158
286
278
195
203
263
47
253
239
145
26
306
167
220
121
274
79
13
127
191
305
211
221
262
80
10
290
73
65
143
77
264
296
207
169
17
249
236
244
257
99
81
242
44
224
303
135
321
110
210
28
129
82
19
155
31
308
183
197
222
134
223
131
285
265
184
12
198
60
97
126
132
238
105
201
51
281
212
165
254
330
109
78
149
176
102
189
136
217
267
98
200
162
299
269
24
266
46
148
27
85
58
171
76
199
319
48
302
322
326
295
101
181
15
179
42
116
243
237
294
49
304
108
122
70
248
57
301
288
275
29
71
150
246
137
140
231
182
178
40
62
235
146
282
151
307
124
139
56
316
69
153
219
16
314
22
38
279
35
37
32
159
214
166
43
30
241
128
258
202
297
173
52
23
53
21
172
332
59
118
194
163
272
63
204
310
88
323
256
259
156
261
113
39
318
186
232
138
160
5
55
3
293
117
312
157
123
311
114
208
327
96
111
36
90
313
209
107
270
41
213
68
2
315
103
215
273
34
227
112
188
133
300
25
147
230
141
284
298
228
252
72
9
234
4
8
75
100
152
94
170
95
64
7
255
325
218
180
54
283
11
291
50
185
233
161
245
14
119
125
268
205
18
320
33
66
142
229
6
104
67
289
115
309
225

> <PUBCHEM_MMFF94_PARTIAL_CHARGES>
37
1 -0.56
10 0.28
11 0.37
12 0.3
13 0.28
14 0.28
15 0.72
16 0.69
17 0.14
18 0.17
19 -0.15
2 -0.56
20 0.16
21 0.44
25 -0.14
26 -0.15
27 -0.15
28 -0.15
29 -0.15
3 -0.57
30 -0.15
39 0.4
4 -0.87
40 0.37
41 0.37
42 0.15
43 0.15
5 -0.73
55 0.15
56 0.15
57 0.15
58 0.15
59 0.15
6 -0.62
7 -0.73
8 -0.62
9 0.28

> <PUBCHEM_EFFECTIVE_ROTOR_COUNT>
9.2

> <PUBCHEM_PHARMACOPHORE_FEATURES>
13
1 1 acceptor
1 2 acceptor
1 3 acceptor
1 4 donor
1 5 donor
1 6 acceptor
1 7 donor
4 17 22 23 24 hydrophobe
4 4 6 8 15 cation
5 1 9 10 11 13 rings
5 2 9 10 12 14 rings
6 25 26 27 28 29 30 rings
6 6 8 15 18 19 20 rings

> <PUBCHEM_HEAVY_ATOM_COUNT>
30

> <PUBCHEM_ATOM_DEF_STEREO_COUNT>
4

> <PUBCHEM_ATOM_UDEF_STEREO_COUNT>
0

> <PUBCHEM_BOND_DEF_STEREO_COUNT>
0

> <PUBCHEM_BOND_UDEF_STEREO_COUNT>
0

> <PUBCHEM_ISOTOPIC_ATOM_COUNT>
0

> <PUBCHEM_COMPONENT_COUNT>
1

> <PUBCHEM_CACTVS_TAUTO_COUNT>
9

> <PUBCHEM_CONFORMER_ID>
00B6370700000001

> <PUBCHEM_MMFF94_ENERGY>
82.5391

> <PUBCHEM_FEATURE_SELFOVERLAP>
66.728

> <PUBCHEM_SHAPE_FINGERPRINT>
10074138 170 17557439690858401825
10622 236 18333454231284830531
10917259 128 10230310804035918482
11070050 100 13686030824811145788
11135609 201 10663814226382440669
11211813 140 18115293497783658227
11796584 16 18264209114728889984
12120059 20 18265633116074002006
12373685 5 17632569492625631633
12390115 104 10663807585999471701
12422481 6 17489879215272927471
12559416 39 18340193168260107975
14848178 5 18411983546484750517
14950920 106 16915665765720360378
15163728 17 8574713511677429097
15183329 4 13984662520852778608
15419009 47 17242152575529775589
16120349 67 8790603749082178504
16989378 47 18040715908729800323
19303781 99 18187083992174053763
20691028 202 9222970166241755091
20775530 9 18265916781288815853
21458453 9 17703209798288378618
21585480 29 17560506391416439254
23572383 38 18201436922547178943
25222932 49 17701548522086954685
2838139 119 8142080923111309252
312425 54 17631741456652086483
312425 83 13841134553748906210
38570 142 9905316550899526288
4173938 77 12607109781659824746
437795 139 17967802869176579119
4394409 98 18189038842771602207
44062 13 18335146358764642101
444735 79 18130212835949118498
463206 1 18339939172778159483
50009960 94 18265032799351848035
613672 6 18201153252752684733

> <PUBCHEM_SHAPE_MULTIPOLES>
574.87
16.96
4.76
2.3
8.28
0.75
0.06
-20.08
-4.2
2.26
0.54
-2.31
-0.5
-1.9

> <PUBCHEM_SHAPE_SELFOVERLAP>
1226.407

> <PUBCHEM_SHAPE_VOLUME>
318.6

> <PUBCHEM_COORDINATE_TYPE>
2
5
10

$$$$
