45361520
  -OEChem-12032416313D

 72 75  0     1  0  0  0  0  0999 V2000
   -0.8126   -0.8821    2.0403 O   0  0  0  0  0  0  0  0  0  0  0  0
   -5.7052   -1.6940    0.1956 O   0  0  0  0  0  0  0  0  0  0  0  0
    4.6257    1.5232   -1.4047 O   0  0  0  0  0  0  0  0  0  0  0  0
   -6.3996    1.2628   -0.5207 O   0  0  0  0  0  0  0  0  0  0  0  0
    3.7033   -0.5538   -0.9331 N   0  0  0  0  0  0  0  0  0  0  0  0
   -5.3354   -0.1076    1.8469 N   0  0  0  0  0  0  0  0  0  0  0  0
   -0.5136   -0.8056   -1.7650 C   0  0  1  0  0  0  0  0  0  0  0  0
   -0.0959   -0.5915   -0.2721 C   0  0  2  0  0  0  0  0  0  0  0  0
    1.4143   -0.9657   -0.0549 C   0  0  1  0  0  0  0  0  0  0  0  0
   -1.1005   -1.2771    0.6982 C   0  0  2  0  0  0  0  0  0  0  0  0
   -1.9690   -0.3223   -1.9681 C   0  0  0  0  0  0  0  0  0  0  0  0
    0.3982    0.0529   -2.6718 C   0  0  0  0  0  0  0  0  0  0  0  0
   -2.5665   -0.8691    0.4222 C   0  0  1  0  0  0  0  0  0  0  0  0
    2.3157   -0.1507   -1.0245 C   0  0  2  0  0  0  0  0  0  0  0  0
   -2.9610   -1.0200   -1.0469 C   0  0  0  0  0  0  0  0  0  0  0  0
    1.8788   -0.2470   -2.4860 C   0  0  0  0  0  0  0  0  0  0  0  0
   -0.4163   -2.2893   -2.2022 C   0  0  0  0  0  0  0  0  0  0  0  0
   -3.5501   -1.6527    1.2999 C   0  0  2  0  0  0  0  0  0  0  0  0
    1.9005   -0.7510    1.3884 C   0  0  0  0  0  0  0  0  0  0  0  0
   -3.4084   -3.1485    1.0404 C   0  0  0  0  0  0  0  0  0  0  0  0
   -4.9751   -1.1753    1.0376 C   0  0  0  0  0  0  0  0  0  0  0  0
    4.7502    0.3315   -1.1342 C   0  0  0  0  0  0  0  0  0  0  0  0
    6.0932   -0.3542   -0.9725 C   0  0  0  0  0  0  0  0  0  0  0  0
   -6.6354    0.5187    1.7813 C   0  0  0  0  0  0  0  0  0  0  0  0
    6.9371    0.2381    0.1251 C   0  0  0  0  0  0  0  0  0  0  0  0
   -6.6780    1.6191    0.7609 C   0  0  0  0  0  0  0  0  0  0  0  0
    7.8166    1.2829   -0.1584 C   0  0  0  0  0  0  0  0  0  0  0  0
    6.8395   -0.2580    1.4251 C   0  0  0  0  0  0  0  0  0  0  0  0
   -6.9487    2.9655    0.8402 C   0  0  0  0  0  0  0  0  0  0  0  0
    8.5986    1.8318    0.8581 C   0  0  0  0  0  0  0  0  0  0  0  0
    7.6212    0.2906    2.4415 C   0  0  0  0  0  0  0  0  0  0  0  0
    8.5008    1.3356    2.1581 C   0  0  0  0  0  0  0  0  0  0  0  0
   -6.8290    3.4687   -0.4772 C   0  0  0  0  0  0  0  0  0  0  0  0
   -6.4935    2.3940   -1.2676 C   0  0  0  0  0  0  0  0  0  0  0  0
   -0.1621    0.4884   -0.0635 H   0  0  0  0  0  0  0  0  0  0  0  0
    1.5488   -2.0340   -0.2665 H   0  0  0  0  0  0  0  0  0  0  0  0
   -0.9445   -2.3557    0.6358 H   0  0  0  0  0  0  0  0  0  0  0  0
   -2.2784   -0.4745   -3.0102 H   0  0  0  0  0  0  0  0  0  0  0  0
   -2.0270    0.7597   -1.7875 H   0  0  0  0  0  0  0  0  0  0  0  0
    0.1329   -0.0945   -3.7264 H   0  0  0  0  0  0  0  0  0  0  0  0
    0.2317    1.1177   -2.4598 H   0  0  0  0  0  0  0  0  0  0  0  0
   -2.6725    0.1951    0.6813 H   0  0  0  0  0  0  0  0  0  0  0  0
    2.2576    0.9063   -0.7295 H   0  0  0  0  0  0  0  0  0  0  0  0
   -3.9382   -0.5605   -1.2335 H   0  0  0  0  0  0  0  0  0  0  0  0
   -3.0479   -2.0614   -1.3623 H   0  0  0  0  0  0  0  0  0  0  0  0
    2.1150   -1.2404   -2.8867 H   0  0  0  0  0  0  0  0  0  0  0  0
    2.4606    0.4571   -3.0949 H   0  0  0  0  0  0  0  0  0  0  0  0
    0.6040   -2.6788   -2.1585 H   0  0  0  0  0  0  0  0  0  0  0  0
   -0.7589   -2.4090   -3.2367 H   0  0  0  0  0  0  0  0  0  0  0  0
   -1.0265   -2.9499   -1.5800 H   0  0  0  0  0  0  0  0  0  0  0  0
   -3.3244   -1.4781    2.3599 H   0  0  0  0  0  0  0  0  0  0  0  0
    1.4659   -1.4915    2.0657 H   0  0  0  0  0  0  0  0  0  0  0  0
    2.9846   -0.8754    1.4778 H   0  0  0  0  0  0  0  0  0  0  0  0
    1.6520    0.2533    1.7464 H   0  0  0  0  0  0  0  0  0  0  0  0
    3.8985   -1.5382   -0.7766 H   0  0  0  0  0  0  0  0  0  0  0  0
   -0.8982    0.0850    2.0955 H   0  0  0  0  0  0  0  0  0  0  0  0
   -2.4455   -3.5475    1.3681 H   0  0  0  0  0  0  0  0  0  0  0  0
   -4.1649   -3.6841    1.6288 H   0  0  0  0  0  0  0  0  0  0  0  0
   -3.5831   -3.4485    0.0051 H   0  0  0  0  0  0  0  0  0  0  0  0
   -4.6569    0.2777    2.4973 H   0  0  0  0  0  0  0  0  0  0  0  0
    5.9775   -1.4309   -0.7984 H   0  0  0  0  0  0  0  0  0  0  0  0
    6.6173   -0.2734   -1.9336 H   0  0  0  0  0  0  0  0  0  0  0  0
   -6.8560    0.9176    2.7767 H   0  0  0  0  0  0  0  0  0  0  0  0
   -7.3917   -0.2351    1.5375 H   0  0  0  0  0  0  0  0  0  0  0  0
    7.9006    1.6793   -1.1667 H   0  0  0  0  0  0  0  0  0  0  0  0
    6.1559   -1.0702    1.6582 H   0  0  0  0  0  0  0  0  0  0  0  0
   -7.2009    3.5173    1.7344 H   0  0  0  0  0  0  0  0  0  0  0  0
    9.2830    2.6457    0.6376 H   0  0  0  0  0  0  0  0  0  0  0  0
    7.5447   -0.0952    3.4539 H   0  0  0  0  0  0  0  0  0  0  0  0
    9.1094    1.7630    2.9497 H   0  0  0  0  0  0  0  0  0  0  0  0
   -6.9693    4.4872   -0.8091 H   0  0  0  0  0  0  0  0  0  0  0  0
   -6.2969    2.2745   -2.3230 H   0  0  0  0  0  0  0  0  0  0  0  0
  1 10  1  0  0  0  0
  1 56  1  0  0  0  0
  2 21  2  0  0  0  0
  3 22  2  0  0  0  0
  4 26  1  0  0  0  0
  4 34  1  0  0  0  0
  5 14  1  0  0  0  0
  5 22  1  0  0  0  0
  5 55  1  0  0  0  0
  6 21  1  0  0  0  0
  6 24  1  0  0  0  0
  6 60  1  0  0  0  0
  7  8  1  0  0  0  0
  7 11  1  0  0  0  0
  7 12  1  0  0  0  0
  7 17  1  0  0  0  0
  8  9  1  0  0  0  0
  8 10  1  0  0  0  0
  8 35  1  0  0  0  0
  9 14  1  0  0  0  0
  9 19  1  0  0  0  0
  9 36  1  0  0  0  0
 10 13  1  0  0  0  0
 10 37  1  0  0  0  0
 11 15  1  0  0  0  0
 11 38  1  0  0  0  0
 11 39  1  0  0  0  0
 12 16  1  0  0  0  0
 12 40  1  0  0  0  0
 12 41  1  0  0  0  0
 13 15  1  0  0  0  0
 13 18  1  0  0  0  0
 13 42  1  0  0  0  0
 14 16  1  0  0  0  0
 14 43  1  0  0  0  0
 15 44  1  0  0  0  0
 15 45  1  0  0  0  0
 16 46  1  0  0  0  0
 16 47  1  0  0  0  0
 17 48  1  0  0  0  0
 17 49  1  0  0  0  0
 17 50  1  0  0  0  0
 18 20  1  0  0  0  0
 18 21  1  0  0  0  0
 18 51  1  0  0  0  0
 19 52  1  0  0  0  0
 19 53  1  0  0  0  0
 19 54  1  0  0  0  0
 20 57  1  0  0  0  0
 20 58  1  0  0  0  0
 20 59  1  0  0  0  0
 22 23  1  0  0  0  0
 23 25  1  0  0  0  0
 23 61  1  0  0  0  0
 23 62  1  0  0  0  0
 24 26  1  0  0  0  0
 24 63  1  0  0  0  0
 24 64  1  0  0  0  0
 25 27  2  0  0  0  0
 25 28  1  0  0  0  0
 26 29  2  0  0  0  0
 27 30  1  0  0  0  0
 27 65  1  0  0  0  0
 28 31  2  0  0  0  0
 28 66  1  0  0  0  0
 29 33  1  0  0  0  0
 29 67  1  0  0  0  0
 30 32  2  0  0  0  0
 30 68  1  0  0  0  0
 31 32  1  0  0  0  0
 31 69  1  0  0  0  0
 32 70  1  0  0  0  0
 33 34  2  0  0  0  0
 33 71  1  0  0  0  0
 34 72  1  0  0  0  0
M  END
> <PUBCHEM_COMPOUND_CID>
45361520

> <PUBCHEM_CONFORMER_RMSD>
1.4

> <PUBCHEM_CONFORMER_DIVERSEORDER>
1
10
70
35
39
64
82
66
84
19
12
40
51
29
22
77
42
33
65
36
76
61
57
8
32
68
53
18
38
45
26
74
52
63
75
16
14
83
17
9
46
79
58
4
7
54
44
81
37
62
31
25
59
56
69
86
11
72
48
71
13
2
20
34
24
28
15
80
78
30
50
47
23
6
3
43
67
49
55
27
85
73
41
60
21
5

> <PUBCHEM_MMFF94_PARTIAL_CHARGES>
34
1 -0.68
10 0.28
14 0.3
18 0.06
2 -0.57
21 0.57
22 0.57
23 0.2
24 0.48
25 -0.14
26 -0.04
27 -0.15
28 -0.15
29 -0.15
3 -0.57
30 -0.15
31 -0.15
32 -0.15
33 -0.15
34 -0.01
4 -0.28
5 -0.73
55 0.37
56 0.4
6 -0.73
60 0.37
65 0.15
66 0.15
67 0.15
68 0.15
69 0.15
70 0.15
71 0.15
72 0.15

> <PUBCHEM_EFFECTIVE_ROTOR_COUNT>
10.6

> <PUBCHEM_PHARMACOPHORE_FEATURES>
12
1 1 acceptor
1 1 donor
1 2 acceptor
1 20 hydrophobe
1 3 acceptor
1 4 acceptor
1 5 donor
1 6 donor
5 4 26 29 33 34 rings
6 25 27 28 30 31 32 rings
6 7 8 10 11 13 15 rings
6 7 8 9 12 14 16 rings

> <PUBCHEM_HEAVY_ATOM_COUNT>
34

> <PUBCHEM_ATOM_DEF_STEREO_COUNT>
6

> <PUBCHEM_ATOM_UDEF_STEREO_COUNT>
1

> <PUBCHEM_BOND_DEF_STEREO_COUNT>
0

> <PUBCHEM_BOND_UDEF_STEREO_COUNT>
0

> <PUBCHEM_ISOTOPIC_ATOM_COUNT>
0

> <PUBCHEM_COMPONENT_COUNT>
1

> <PUBCHEM_CACTVS_TAUTO_COUNT>
4

> <PUBCHEM_CONFORMER_ID>
02B4297000000001

> <PUBCHEM_MMFF94_ENERGY>
83.4065

> <PUBCHEM_FEATURE_SELFOVERLAP>
60.912

> <PUBCHEM_SHAPE_FINGERPRINT>
10 15 17059783320640012326
10533779 1 18044653106432971765
10554248 39 15625952993463595420
10625338 86 18343585127276313633
11007060 377 15410892972514072411
11456790 92 17603588547618204808
11578821 258 17917713543379899640
11828042 291 14332304974507820188
11973864 196 16557597889701102936
12838862 33 16128647558336501938
13165053 182 16054878109818837448
13668630 136 11241965993267569902
13782708 43 7853565769574750197
14040221 275 15503492622388162029
14415360 78 16702008795102060152
16993089 31 11891332036866660136
16994733 274 18202276996469587928
19246450 95 16950557736915650757
20982279 24 13118279210350296312
21033648 29 18343021086369154454
21867018 265 11095874990933504304
22149856 69 17603301528334041312
22288116 15 12895349997765545021
23522609 53 16661800762696228559
23569943 247 15574985208639482067
23576562 1 15912747509823253120
25269216 80 12175617387342583437
393628 179 18271801277548756961
4093350 32 18337952290922029666
4169191 19 16630531738650031634
437795 83 16558757763131443433
4403749 210 17988924513268948863
504579 68 13614236001647148480
5104073 3 17023762236796334341
58083652 198 16009028436169107223
6058803 2 16663770108544890471
9980921 7 17059764633300474976
999808 66 13406796627265105873

> <PUBCHEM_SHAPE_MULTIPOLES>
666.26
26.25
2.7
2.55
27.05
1.14
-0.1
25.64
7.52
-4.87
-0.35
-0.15
-0.37
3.59

> <PUBCHEM_SHAPE_SELFOVERLAP>
1405.239

> <PUBCHEM_SHAPE_VOLUME>
370.6

> <PUBCHEM_COORDINATE_TYPE>
2
5
10

$$$$
