11882059
  -OEChem-12032416353D

 60 62  0     1  0  0  0  0  0999 V2000
   -3.8474    4.5353   -0.4900 S   0  0  0  0  0  0  0  0  0  0  0  0
   -5.0563   -3.9299   -1.5435 S   0  0  0  0  0  0  0  0  0  0  0  0
    5.8910    1.9596   -0.9716 F   0  0  0  0  0  0  0  0  0  0  0  0
    8.1066   -2.2152   -1.1778 F   0  0  0  0  0  0  0  0  0  0  0  0
   -2.8878    0.8027    1.5816 O   0  0  0  0  0  0  0  0  0  0  0  0
   -2.3823    1.8379   -1.8182 O   0  0  0  0  0  0  0  0  0  0  0  0
    2.1871   -0.8281    1.0762 O   0  0  0  0  0  0  0  0  0  0  0  0
   -1.3445   -2.6306    2.8785 O   0  0  0  0  0  0  0  0  0  0  0  0
   -1.2916    2.3859    0.1486 N   0  0  0  0  0  0  0  0  0  0  0  0
    1.5706    1.3964    0.9484 N   0  0  0  0  0  0  0  0  0  0  0  0
   -1.8766   -1.0850    0.6689 N   0  0  0  0  0  0  0  0  0  0  0  0
    3.6440    0.7799    0.1802 N   0  0  0  0  0  0  0  0  0  0  0  0
   -3.6048   -2.7206    3.2780 N   0  0  0  0  0  0  0  0  0  0  0  0
    0.2585    1.2403    1.5299 C   0  0  2  0  0  0  0  0  0  0  0  0
   -0.8013    1.0438    0.4458 C   0  0  1  0  0  0  0  0  0  0  0  0
   -0.1916    2.5197    2.2405 C   0  0  0  0  0  0  0  0  0  0  0  0
   -0.8088    3.3563    1.1273 C   0  0  0  0  0  0  0  0  0  0  0  0
   -1.9752    0.2648    0.9601 C   0  0  0  0  0  0  0  0  0  0  0  0
   -1.9888    2.6831   -1.0125 C   0  0  0  0  0  0  0  0  0  0  0  0
   -2.8676   -2.0555    1.0742 C   0  0  1  0  0  0  0  0  0  0  0  0
   -2.2639    4.1468   -1.2492 C   0  0  0  0  0  0  0  0  0  0  0  0
    2.4554    0.3288    0.7609 C   0  0  0  0  0  0  0  0  0  0  0  0
   -2.9282   -3.2573    0.1234 C   0  0  0  0  0  0  0  0  0  0  0  0
   -2.5003   -2.5088    2.4797 C   0  0  0  0  0  0  0  0  0  0  0  0
   -3.7090   -2.9556   -1.1340 C   0  0  0  0  0  0  0  0  0  0  0  0
    4.7837    0.0180   -0.1683 C   0  0  0  0  0  0  0  0  0  0  0  0
   -3.4920   -1.9583   -2.0592 C   0  0  0  0  0  0  0  0  0  0  0  0
   -3.9335    6.2943   -0.9075 C   0  0  0  0  0  0  0  0  0  0  0  0
    5.8928    0.6388   -0.7428 C   0  0  0  0  0  0  0  0  0  0  0  0
    4.7967   -1.3572    0.0648 C   0  0  0  0  0  0  0  0  0  0  0  0
   -4.4446   -1.9944   -3.1181 C   0  0  0  0  0  0  0  0  0  0  0  0
   -5.3532   -3.0179   -2.9620 C   0  0  0  0  0  0  0  0  0  0  0  0
    7.0152   -0.1156   -1.0843 C   0  0  0  0  0  0  0  0  0  0  0  0
    5.9192   -2.1116   -0.2767 C   0  0  0  0  0  0  0  0  0  0  0  0
    7.0283   -1.4908   -0.8513 C   0  0  0  0  0  0  0  0  0  0  0  0
    0.2936    0.4008    2.2335 H   0  0  0  0  0  0  0  0  0  0  0  0
   -0.4135    0.5877   -0.4729 H   0  0  0  0  0  0  0  0  0  0  0  0
   -0.9622    2.2765    2.9821 H   0  0  0  0  0  0  0  0  0  0  0  0
    0.6163    3.0478    2.7562 H   0  0  0  0  0  0  0  0  0  0  0  0
   -0.0480    3.9797    0.6451 H   0  0  0  0  0  0  0  0  0  0  0  0
   -1.6192    3.9930    1.4899 H   0  0  0  0  0  0  0  0  0  0  0  0
    1.8407    2.3113    0.6001 H   0  0  0  0  0  0  0  0  0  0  0  0
   -1.0335   -1.4294    0.2181 H   0  0  0  0  0  0  0  0  0  0  0  0
   -3.8411   -1.5493    1.1123 H   0  0  0  0  0  0  0  0  0  0  0  0
   -1.4692    4.7894   -0.8664 H   0  0  0  0  0  0  0  0  0  0  0  0
   -2.3242    4.3093   -2.3307 H   0  0  0  0  0  0  0  0  0  0  0  0
   -1.9162   -3.5755   -0.1608 H   0  0  0  0  0  0  0  0  0  0  0  0
   -3.3788   -4.1125    0.6440 H   0  0  0  0  0  0  0  0  0  0  0  0
    3.7086    1.7751   -0.0189 H   0  0  0  0  0  0  0  0  0  0  0  0
   -3.4998   -3.0112    4.2445 H   0  0  0  0  0  0  0  0  0  0  0  0
   -4.5546   -2.6128    2.9369 H   0  0  0  0  0  0  0  0  0  0  0  0
   -2.6878   -1.2370   -1.9959 H   0  0  0  0  0  0  0  0  0  0  0  0
   -3.0943    6.8326   -0.4594 H   0  0  0  0  0  0  0  0  0  0  0  0
   -3.9212    6.4287   -1.9922 H   0  0  0  0  0  0  0  0  0  0  0  0
   -4.8643    6.7123   -0.5154 H   0  0  0  0  0  0  0  0  0  0  0  0
    3.9790   -1.9099    0.5047 H   0  0  0  0  0  0  0  0  0  0  0  0
   -4.4613   -1.3058   -3.9528 H   0  0  0  0  0  0  0  0  0  0  0  0
   -6.1769   -3.2740   -3.6134 H   0  0  0  0  0  0  0  0  0  0  0  0
    7.8789    0.3675   -1.5314 H   0  0  0  0  0  0  0  0  0  0  0  0
    5.9313   -3.1824   -0.0957 H   0  0  0  0  0  0  0  0  0  0  0  0
  1 21  1  0  0  0  0
  1 28  1  0  0  0  0
  2 25  1  0  0  0  0
  2 32  1  0  0  0  0
  3 29  1  0  0  0  0
  4 35  1  0  0  0  0
  5 18  2  0  0  0  0
  6 19  2  0  0  0  0
  7 22  2  0  0  0  0
  8 24  2  0  0  0  0
  9 15  1  0  0  0  0
  9 17  1  0  0  0  0
  9 19  1  0  0  0  0
 10 14  1  0  0  0  0
 10 22  1  0  0  0  0
 10 42  1  0  0  0  0
 11 18  1  0  0  0  0
 11 20  1  0  0  0  0
 11 43  1  0  0  0  0
 12 22  1  0  0  0  0
 12 26  1  0  0  0  0
 12 49  1  0  0  0  0
 13 24  1  0  0  0  0
 13 50  1  0  0  0  0
 13 51  1  0  0  0  0
 14 15  1  0  0  0  0
 14 16  1  0  0  0  0
 14 36  1  0  0  0  0
 15 18  1  0  0  0  0
 15 37  1  0  0  0  0
 16 17  1  0  0  0  0
 16 38  1  0  0  0  0
 16 39  1  0  0  0  0
 17 40  1  0  0  0  0
 17 41  1  0  0  0  0
 19 21  1  0  0  0  0
 20 23  1  0  0  0  0
 20 24  1  0  0  0  0
 20 44  1  0  0  0  0
 21 45  1  0  0  0  0
 21 46  1  0  0  0  0
 23 25  1  0  0  0  0
 23 47  1  0  0  0  0
 23 48  1  0  0  0  0
 25 27  2  0  0  0  0
 26 29  2  0  0  0  0
 26 30  1  0  0  0  0
 27 31  1  0  0  0  0
 27 52  1  0  0  0  0
 28 53  1  0  0  0  0
 28 54  1  0  0  0  0
 28 55  1  0  0  0  0
 29 33  1  0  0  0  0
 30 34  2  0  0  0  0
 30 56  1  0  0  0  0
 31 32  2  0  0  0  0
 31 57  1  0  0  0  0
 32 58  1  0  0  0  0
 33 35  2  0  0  0  0
 33 59  1  0  0  0  0
 34 35  1  0  0  0  0
 34 60  1  0  0  0  0
M  END
> <PUBCHEM_COMPOUND_CID>
11882059

> <PUBCHEM_CONFORMER_RMSD>
1.2

> <PUBCHEM_CONFORMER_DIVERSEORDER>
1
15
31
4
6
20
28
30
21
9
26
23
22
13
16
14
11
19
24
12
5
27
3
25
18
29
7
17
8
10
2

> <PUBCHEM_MMFF94_PARTIAL_CHARGES>
45
1 -0.46
10 -0.73
11 -0.73
12 -0.55
13 -0.8
14 0.3
15 0.36
17 0.3
18 0.57
19 0.57
2 -0.08
20 0.36
21 0.29
22 0.69
23 0.18
24 0.57
25 -0.14
26 0.12
27 -0.15
28 0.23
29 0.19
3 -0.19
30 -0.15
31 -0.15
32 -0.11
33 -0.15
34 -0.15
35 0.19
4 -0.19
42 0.37
43 0.37
49 0.37
5 -0.57
50 0.37
51 0.37
52 0.15
56 0.15
57 0.15
58 0.15
59 0.15
6 -0.57
60 0.15
7 -0.57
8 -0.57
9 -0.66

> <PUBCHEM_EFFECTIVE_ROTOR_COUNT>
14

> <PUBCHEM_PHARMACOPHORE_FEATURES>
12
1 10 donor
1 11 donor
1 12 donor
1 13 donor
1 28 hydrophobe
1 5 acceptor
1 6 acceptor
1 7 acceptor
1 8 acceptor
5 2 25 27 31 32 rings
5 9 14 15 16 17 rings
6 26 29 30 33 34 35 rings

> <PUBCHEM_HEAVY_ATOM_COUNT>
35

> <PUBCHEM_ATOM_DEF_STEREO_COUNT>
3

> <PUBCHEM_ATOM_UDEF_STEREO_COUNT>
0

> <PUBCHEM_BOND_DEF_STEREO_COUNT>
0

> <PUBCHEM_BOND_UDEF_STEREO_COUNT>
0

> <PUBCHEM_ISOTOPIC_ATOM_COUNT>
0

> <PUBCHEM_COMPONENT_COUNT>
1

> <PUBCHEM_CACTVS_TAUTO_COUNT>
12

> <PUBCHEM_CONFORMER_ID>
00B54E4B00000001

> <PUBCHEM_MMFF94_ENERGY>
78.9066

> <PUBCHEM_FEATURE_SELFOVERLAP>
60.95

> <PUBCHEM_SHAPE_FINGERPRINT>
10622 236 17057794402589213279
11991303 11 18267019453849381517
12788726 201 18188187871909741363
131258 38 15475878726705355607
13690498 29 18413106177652312693
14114206 34 18260263075081572203
14556957 393 18261122919055242388
14950920 106 15913052049296589826
15064986 266 18261686908406455628
15361156 5 18409176527642926508
16628084 112 18263923250760099603
16993438 75 18341612568681629766
18603816 31 18059574646275550475
19301676 85 17547581379472992222
4058900 60 17686626740348638825
42767 28 17168695453292212134
437795 70 18265875004516429023
484985 159 17561084691904281175
563151 40 18266172830376087077
70251023 43 18128244795496519155

> <PUBCHEM_SHAPE_MULTIPOLES>
665.05
16.07
7.09
2.81
39.54
8.36
0.94
-12.51
-11.76
-15.1
-2.52
-4.45
-2.37
0.16

> <PUBCHEM_SHAPE_SELFOVERLAP>
1374.591

> <PUBCHEM_SHAPE_VOLUME>
382.7

> <PUBCHEM_COORDINATE_TYPE>
2
5
10

$$$$
