28961981
  -OEChem-12032416203D

 64 67  0     1  0  0  0  0  0999 V2000
    5.3715   -3.7483   -3.0248 Cl  0  0  0  0  0  0  0  0  0  0  0  0
    2.8019   -1.4255    2.2116 S   0  0  0  0  0  0  0  0  0  0  0  0
    2.3571    3.0171    0.6731 O   0  0  0  0  0  0  0  0  0  0  0  0
    1.2432    2.3436   -2.0240 O   0  0  0  0  0  0  0  0  0  0  0  0
    4.0196    5.0109   -0.4065 O   0  0  0  0  0  0  0  0  0  0  0  0
    1.4689   -1.9826    2.3407 O   0  0  0  0  0  0  0  0  0  0  0  0
    3.7727   -1.6028    3.2744 O   0  0  0  0  0  0  0  0  0  0  0  0
   -5.0175   -0.3288    1.8319 O   0  0  0  0  0  0  0  0  0  0  0  0
   -0.8212    1.4309   -0.2557 N   0  0  0  0  0  0  0  0  0  0  0  0
   -3.3443    0.0977   -0.3820 N   0  0  0  0  0  0  0  0  0  0  0  0
    2.6858    0.2308    1.8359 N   0  0  0  0  0  0  0  0  0  0  0  0
    0.1034    2.4858    0.1205 C   0  0  1  0  0  0  0  0  0  0  0  0
    1.3145    2.0584    0.9596 C   0  0  1  0  0  0  0  0  0  0  0  0
    0.7381    3.2367   -1.0399 C   0  0  1  0  0  0  0  0  0  0  0  0
    1.8842    3.9423   -0.3249 C   0  0  2  0  0  0  0  0  0  0  0  0
   -1.3807    0.7862    0.9388 C   0  0  0  0  0  0  0  0  0  0  0  0
   -1.9052    1.9684   -1.0869 C   0  0  0  0  0  0  0  0  0  0  0  0
    1.8855    0.6728    0.6797 C   0  0  0  0  0  0  0  0  0  0  0  0
   -2.3133   -0.3651    0.5555 C   0  0  0  0  0  0  0  0  0  0  0  0
   -2.8564    0.8570   -1.5374 C   0  0  0  0  0  0  0  0  0  0  0  0
    3.0449    4.3628   -1.2079 C   0  0  0  0  0  0  0  0  0  0  0  0
   -4.5186   -0.6555   -0.4921 C   0  0  0  0  0  0  0  0  0  0  0  0
   -5.3389   -0.8580    0.6176 C   0  0  0  0  0  0  0  0  0  0  0  0
   -4.8658   -1.2058   -1.7258 C   0  0  0  0  0  0  0  0  0  0  0  0
    3.5254   -2.0799    0.7374 C   0  0  0  0  0  0  0  0  0  0  0  0
   -6.5065   -1.6109    0.4936 C   0  0  0  0  0  0  0  0  0  0  0  0
   -6.0335   -1.9588   -1.8499 C   0  0  0  0  0  0  0  0  0  0  0  0
   -6.8539   -2.1614   -0.7401 C   0  0  0  0  0  0  0  0  0  0  0  0
    4.9129   -2.1564    0.6161 C   0  0  0  0  0  0  0  0  0  0  0  0
    2.7089   -2.5193   -0.3047 C   0  0  0  0  0  0  0  0  0  0  0  0
    5.4839   -2.6722   -0.5473 C   0  0  0  0  0  0  0  0  0  0  0  0
    3.2799   -3.0351   -1.4680 C   0  0  0  0  0  0  0  0  0  0  0  0
   -5.5140    0.9763    2.1209 C   0  0  0  0  0  0  0  0  0  0  0  0
    4.6673   -3.1114   -1.5894 C   0  0  0  0  0  0  0  0  0  0  0  0
   -0.4357    3.2402    0.7167 H   0  0  0  0  0  0  0  0  0  0  0  0
    1.0672    2.1488    2.0251 H   0  0  0  0  0  0  0  0  0  0  0  0
    0.0648    3.9507   -1.5248 H   0  0  0  0  0  0  0  0  0  0  0  0
    1.5070    4.8110    0.2301 H   0  0  0  0  0  0  0  0  0  0  0  0
   -1.9464    1.5173    1.5336 H   0  0  0  0  0  0  0  0  0  0  0  0
   -0.6159    0.3777    1.6048 H   0  0  0  0  0  0  0  0  0  0  0  0
   -1.5184    2.4345   -1.9992 H   0  0  0  0  0  0  0  0  0  0  0  0
   -2.4712    2.7355   -0.5409 H   0  0  0  0  0  0  0  0  0  0  0  0
    2.5524    0.7045   -0.1897 H   0  0  0  0  0  0  0  0  0  0  0  0
    1.1146   -0.0712    0.4803 H   0  0  0  0  0  0  0  0  0  0  0  0
   -1.7334   -1.1655    0.0765 H   0  0  0  0  0  0  0  0  0  0  0  0
   -2.7263   -0.7915    1.4742 H   0  0  0  0  0  0  0  0  0  0  0  0
   -3.6911    1.3226   -2.0763 H   0  0  0  0  0  0  0  0  0  0  0  0
   -2.3333    0.1868   -2.2318 H   0  0  0  0  0  0  0  0  0  0  0  0
    2.7141    5.0524   -1.9903 H   0  0  0  0  0  0  0  0  0  0  0  0
    3.5324    3.4961   -1.6655 H   0  0  0  0  0  0  0  0  0  0  0  0
    1.5368    2.8767   -2.7822 H   0  0  0  0  0  0  0  0  0  0  0  0
    3.4611    0.8490    2.1061 H   0  0  0  0  0  0  0  0  0  0  0  0
    4.7475    5.2721   -0.9960 H   0  0  0  0  0  0  0  0  0  0  0  0
   -4.2449   -1.0829   -2.6086 H   0  0  0  0  0  0  0  0  0  0  0  0
   -7.1501   -1.7738    1.3539 H   0  0  0  0  0  0  0  0  0  0  0  0
   -6.3025   -2.3906   -2.8095 H   0  0  0  0  0  0  0  0  0  0  0  0
   -7.7625   -2.7485   -0.8364 H   0  0  0  0  0  0  0  0  0  0  0  0
    5.5677   -1.8132    1.4120 H   0  0  0  0  0  0  0  0  0  0  0  0
    1.6263   -2.4671   -0.2328 H   0  0  0  0  0  0  0  0  0  0  0  0
    6.5666   -2.7242   -0.6288 H   0  0  0  0  0  0  0  0  0  0  0  0
    2.6314   -3.3731   -2.2722 H   0  0  0  0  0  0  0  0  0  0  0  0
   -5.1608    1.2642    3.1149 H   0  0  0  0  0  0  0  0  0  0  0  0
   -6.6086    0.9779    2.1241 H   0  0  0  0  0  0  0  0  0  0  0  0
   -5.1392    1.7034    1.3935 H   0  0  0  0  0  0  0  0  0  0  0  0
  1 34  1  0  0  0  0
  2  6  2  0  0  0  0
  2  7  2  0  0  0  0
  2 11  1  0  0  0  0
  2 25  1  0  0  0  0
  3 13  1  0  0  0  0
  3 15  1  0  0  0  0
  4 14  1  0  0  0  0
  4 51  1  0  0  0  0
  5 21  1  0  0  0  0
  5 53  1  0  0  0  0
  8 23  1  0  0  0  0
  8 33  1  0  0  0  0
  9 12  1  0  0  0  0
  9 16  1  0  0  0  0
  9 17  1  0  0  0  0
 10 19  1  0  0  0  0
 10 20  1  0  0  0  0
 10 22  1  0  0  0  0
 11 18  1  0  0  0  0
 11 52  1  0  0  0  0
 12 13  1  0  0  0  0
 12 14  1  0  0  0  0
 12 35  1  0  0  0  0
 13 18  1  0  0  0  0
 13 36  1  0  0  0  0
 14 15  1  0  0  0  0
 14 37  1  0  0  0  0
 15 21  1  0  0  0  0
 15 38  1  0  0  0  0
 16 19  1  0  0  0  0
 16 39  1  0  0  0  0
 16 40  1  0  0  0  0
 17 20  1  0  0  0  0
 17 41  1  0  0  0  0
 17 42  1  0  0  0  0
 18 43  1  0  0  0  0
 18 44  1  0  0  0  0
 19 45  1  0  0  0  0
 19 46  1  0  0  0  0
 20 47  1  0  0  0  0
 20 48  1  0  0  0  0
 21 49  1  0  0  0  0
 21 50  1  0  0  0  0
 22 23  1  0  0  0  0
 22 24  2  0  0  0  0
 23 26  2  0  0  0  0
 24 27  1  0  0  0  0
 24 54  1  0  0  0  0
 25 29  2  0  0  0  0
 25 30  1  0  0  0  0
 26 28  1  0  0  0  0
 26 55  1  0  0  0  0
 27 28  2  0  0  0  0
 27 56  1  0  0  0  0
 28 57  1  0  0  0  0
 29 31  1  0  0  0  0
 29 58  1  0  0  0  0
 30 32  2  0  0  0  0
 30 59  1  0  0  0  0
 31 34  2  0  0  0  0
 31 60  1  0  0  0  0
 32 34  1  0  0  0  0
 32 61  1  0  0  0  0
 33 62  1  0  0  0  0
 33 63  1  0  0  0  0
 33 64  1  0  0  0  0
M  END
> <PUBCHEM_COMPOUND_CID>
28961981

> <PUBCHEM_CONFORMER_RMSD>
1

> <PUBCHEM_CONFORMER_DIVERSEORDER>
1
93
152
68
81
155
150
149
104
57
72
108
67
44
164
100
110
160
112
77
136
83
24
137
143
43
123
92
70
131
153
32
87
105
113
40
165
138
73
116
78
53
19
117
36
102
167
119
135
162
166
65
95
35
29
91
130
126
115
75
86
79
48
147
106
9
158
26
89
124
39
170
142
97
41
30
15
2
101
159
50
125
132
120
140
59
141
169
148
62
49
34
114
69
129
61
128
46
82
13
63
85
84
52
139
54
96
74
157
146
25
27
163
20
109
156
90
134
111
38
22
37
4
107
14
7
58
168
64
71
42
56
154
127
145
88
31
6
161
3
122
66
151
103
18
21
94
16
80
5
33
121
99
60
45
11
133
76
10
144
118
28
51
17
23
55
98
12
47
8

> <PUBCHEM_MMFF94_PARTIAL_CHARGES>
45
1 -0.18
10 -0.84
11 -0.91
12 0.27
13 0.28
14 0.28
15 0.28
16 0.27
17 0.27
18 0.36
19 0.37
2 1.45
20 0.37
21 0.28
22 0.1
23 0.08
24 -0.15
25 -0.01
26 -0.15
27 -0.15
28 -0.15
29 -0.15
3 -0.56
30 -0.15
31 -0.15
32 -0.15
33 0.28
34 0.18
4 -0.68
5 -0.68
51 0.4
52 0.42
53 0.4
54 0.15
55 0.15
56 0.15
57 0.15
58 0.15
59 0.15
6 -0.65
60 0.15
61 0.15
7 -0.65
8 -0.36
9 -0.81

> <PUBCHEM_EFFECTIVE_ROTOR_COUNT>
10.2

> <PUBCHEM_PHARMACOPHORE_FEATURES>
15
1 10 cation
1 11 donor
1 3 acceptor
1 4 acceptor
1 4 donor
1 5 acceptor
1 5 donor
1 6 acceptor
1 7 acceptor
1 8 acceptor
1 9 cation
5 3 12 13 14 15 rings
6 22 23 24 26 27 28 rings
6 25 29 30 31 32 34 rings
6 9 10 16 17 19 20 rings

> <PUBCHEM_HEAVY_ATOM_COUNT>
34

> <PUBCHEM_ATOM_DEF_STEREO_COUNT>
4

> <PUBCHEM_ATOM_UDEF_STEREO_COUNT>
0

> <PUBCHEM_BOND_DEF_STEREO_COUNT>
0

> <PUBCHEM_BOND_UDEF_STEREO_COUNT>
0

> <PUBCHEM_ISOTOPIC_ATOM_COUNT>
0

> <PUBCHEM_COMPONENT_COUNT>
1

> <PUBCHEM_CACTVS_TAUTO_COUNT>
1

> <PUBCHEM_CONFORMER_ID>
01B9ECBD00000001

> <PUBCHEM_MMFF94_ENERGY>
100.4363

> <PUBCHEM_FEATURE_SELFOVERLAP>
76.15

> <PUBCHEM_SHAPE_FINGERPRINT>
10928967 22 18335694988886051211
11059845 2 17200813107336662617
11181472 205 18411418458698295853
11399939 17 17703223043783462295
11607047 141 18271822237262454899
12107183 9 18128831746487112513
12128747 34 16342295740644780963
12422481 6 17489303041131103615
12522641 68 17326063243960108724
12788726 201 17466506707712707432
13533116 47 18268423711187466873
13757389 114 17691140240044379356
14251740 57 18201714063707189395
14918310 93 18041826433656627492
15484559 13 17897720097212884956
16989378 47 18341624727728822070
1813 80 18337949004722850411
20771845 140 18055620957666707000
20775438 99 18118956138503952739
20775530 9 18261395485921380236
21344244 246 18409451419168170980
21716022 299 18341347642757697292
22440779 20 17272290129276004088
2260408 40 18060128834748727320
24204213 148 17126174147385498471
25222932 49 18116409532324656394
4017518 198 18053109712486531636
4394409 98 15385298128758510286
44344687 77 18118715246519325314
46194498 28 18262226819780644604
5081480 168 17967821535299626385
613672 6 18196066885897208150
6669772 16 18192436501120596372
6700243 42 17767981844193499518

> <PUBCHEM_SHAPE_MULTIPOLES>
655.26
15.51
5.92
2.56
18.35
5.86
-0.71
-17.63
2.34
-10.32
3.64
-1.82
-1.51
-0.13

> <PUBCHEM_SHAPE_SELFOVERLAP>
1366.199

> <PUBCHEM_SHAPE_VOLUME>
373.9

> <PUBCHEM_COORDINATE_TYPE>
2
5
10

$$$$
