45361601
  -OEChem-12032416203D

 71 74  0     1  0  0  0  0  0999 V2000
    0.4143   -2.2908   -1.4757 O   0  0  0  0  0  0  0  0  0  0  0  0
    5.2922   -2.3082    0.7100 O   0  0  0  0  0  0  0  0  0  0  0  0
   -4.8924    2.0499   -1.1106 O   0  0  0  0  0  0  0  0  0  0  0  0
   -4.1605    0.1786    0.0461 N   0  0  0  0  0  0  0  0  0  0  0  0
    4.7855   -1.1824   -1.2536 N   0  0  0  0  0  0  0  0  0  0  0  0
   -6.7044   -0.5734    0.3782 N   0  0  0  0  0  0  0  0  0  0  0  0
   -0.0203    0.3889    1.2087 C   0  0  1  0  0  0  0  0  0  0  0  0
   -0.3592   -0.4626   -0.0598 C   0  0  2  0  0  0  0  0  0  0  0  0
   -1.8884   -0.8196   -0.1012 C   0  0  1  0  0  0  0  0  0  0  0  0
    0.6129   -1.6687   -0.2054 C   0  0  2  0  0  0  0  0  0  0  0  0
    1.4652    0.8179    1.1604 C   0  0  0  0  0  0  0  0  0  0  0  0
   -0.8814    1.6731    1.1988 C   0  0  0  0  0  0  0  0  0  0  0  0
    2.0991   -1.2448   -0.1484 C   0  0  1  0  0  0  0  0  0  0  0  0
   -2.7457    0.4755   -0.0349 C   0  0  2  0  0  0  0  0  0  0  0  0
    2.4218   -0.3627    1.0576 C   0  0  0  0  0  0  0  0  0  0  0  0
   -2.3754    1.3902    1.1324 C   0  0  0  0  0  0  0  0  0  0  0  0
   -0.2725   -0.3842    2.5280 C   0  0  0  0  0  0  0  0  0  0  0  0
    3.0376   -2.4576   -0.1618 C   0  0  2  0  0  0  0  0  0  0  0  0
   -2.2974   -1.6339   -1.3404 C   0  0  0  0  0  0  0  0  0  0  0  0
    2.7468   -3.3596    1.0326 C   0  0  0  0  0  0  0  0  0  0  0  0
    4.4900   -1.9911   -0.1658 C   0  0  0  0  0  0  0  0  0  0  0  0
   -5.1233    1.0051   -0.5076 C   0  0  0  0  0  0  0  0  0  0  0  0
   -6.5319    0.5740   -0.3155 C   0  0  0  0  0  0  0  0  0  0  0  0
    6.0965   -0.6170   -1.4736 C   0  0  0  0  0  0  0  0  0  0  0  0
   -7.5705    1.3323   -0.8314 C   0  0  0  0  0  0  0  0  0  0  0  0
    6.2452    0.7272   -0.8215 C   0  0  0  0  0  0  0  0  0  0  0  0
   -8.8699    0.8841   -0.6215 C   0  0  0  0  0  0  0  0  0  0  0  0
   -7.9812   -0.9777    0.5621 C   0  0  0  0  0  0  0  0  0  0  0  0
    5.9151    1.8845   -1.5266 C   0  0  0  0  0  0  0  0  0  0  0  0
    6.7135    0.8187    0.4892 C   0  0  0  0  0  0  0  0  0  0  0  0
   -9.0878   -0.2919    0.0876 C   0  0  0  0  0  0  0  0  0  0  0  0
    6.0533    3.1335   -0.9209 C   0  0  0  0  0  0  0  0  0  0  0  0
    6.8516    2.0675    1.0949 C   0  0  0  0  0  0  0  0  0  0  0  0
    6.5216    3.2250    0.3898 C   0  0  0  0  0  0  0  0  0  0  0  0
   -0.1846    0.1757   -0.9409 H   0  0  0  0  0  0  0  0  0  0  0  0
   -2.1304   -1.4444    0.7679 H   0  0  0  0  0  0  0  0  0  0  0  0
    0.3519   -2.4013    0.5601 H   0  0  0  0  0  0  0  0  0  0  0  0
    1.7193    1.4089    2.0498 H   0  0  0  0  0  0  0  0  0  0  0  0
    1.6318    1.4775    0.2980 H   0  0  0  0  0  0  0  0  0  0  0  0
   -0.6712    2.2786    2.0896 H   0  0  0  0  0  0  0  0  0  0  0  0
   -0.6080    2.2937    0.3348 H   0  0  0  0  0  0  0  0  0  0  0  0
    2.2828   -0.6423   -1.0480 H   0  0  0  0  0  0  0  0  0  0  0  0
   -2.5770    1.0379   -0.9638 H   0  0  0  0  0  0  0  0  0  0  0  0
    3.4356    0.0466    0.9813 H   0  0  0  0  0  0  0  0  0  0  0  0
    2.3903   -0.9105    2.0017 H   0  0  0  0  0  0  0  0  0  0  0  0
   -2.7188    0.9539    2.0784 H   0  0  0  0  0  0  0  0  0  0  0  0
   -2.9114    2.3439    1.0417 H   0  0  0  0  0  0  0  0  0  0  0  0
   -1.3226   -0.6524    2.6686 H   0  0  0  0  0  0  0  0  0  0  0  0
    0.0194    0.2238    3.3923 H   0  0  0  0  0  0  0  0  0  0  0  0
    0.2947   -1.3176    2.5815 H   0  0  0  0  0  0  0  0  0  0  0  0
    2.8891   -3.0396   -1.0805 H   0  0  0  0  0  0  0  0  0  0  0  0
   -1.9083   -2.6545   -1.2881 H   0  0  0  0  0  0  0  0  0  0  0  0
   -3.3841   -1.7402   -1.4197 H   0  0  0  0  0  0  0  0  0  0  0  0
   -1.9429   -1.1606   -2.2618 H   0  0  0  0  0  0  0  0  0  0  0  0
   -4.4528   -0.6364    0.5782 H   0  0  0  0  0  0  0  0  0  0  0  0
    0.5892   -1.6297   -2.1670 H   0  0  0  0  0  0  0  0  0  0  0  0
    1.7502   -3.8052    1.0023 H   0  0  0  0  0  0  0  0  0  0  0  0
    3.4435   -4.2082    1.0181 H   0  0  0  0  0  0  0  0  0  0  0  0
    2.8945   -2.8806    2.0032 H   0  0  0  0  0  0  0  0  0  0  0  0
    4.0804   -1.0087   -1.9625 H   0  0  0  0  0  0  0  0  0  0  0  0
    6.2432   -0.5367   -2.5568 H   0  0  0  0  0  0  0  0  0  0  0  0
    6.8611   -1.3089   -1.1010 H   0  0  0  0  0  0  0  0  0  0  0  0
   -7.4016    2.2498   -1.3847 H   0  0  0  0  0  0  0  0  0  0  0  0
   -9.7113    1.4501   -1.0097 H   0  0  0  0  0  0  0  0  0  0  0  0
   -8.0972   -1.9004    1.1211 H   0  0  0  0  0  0  0  0  0  0  0  0
    5.5472    1.8263   -2.5475 H   0  0  0  0  0  0  0  0  0  0  0  0
    6.9773   -0.0738    1.0498 H   0  0  0  0  0  0  0  0  0  0  0  0
  -10.0920   -0.6602    0.2631 H   0  0  0  0  0  0  0  0  0  0  0  0
    5.7957    4.0347   -1.4697 H   0  0  0  0  0  0  0  0  0  0  0  0
    7.2165    2.1389    2.1154 H   0  0  0  0  0  0  0  0  0  0  0  0
    6.6290    4.1974    0.8614 H   0  0  0  0  0  0  0  0  0  0  0  0
  1 10  1  0  0  0  0
  1 56  1  0  0  0  0
  2 21  2  0  0  0  0
  3 22  2  0  0  0  0
  4 14  1  0  0  0  0
  4 22  1  0  0  0  0
  4 55  1  0  0  0  0
  5 21  1  0  0  0  0
  5 24  1  0  0  0  0
  5 60  1  0  0  0  0
  6 23  1  0  0  0  0
  6 28  2  0  0  0  0
  7  8  1  0  0  0  0
  7 11  1  0  0  0  0
  7 12  1  0  0  0  0
  7 17  1  0  0  0  0
  8  9  1  0  0  0  0
  8 10  1  0  0  0  0
  8 35  1  0  0  0  0
  9 14  1  0  0  0  0
  9 19  1  0  0  0  0
  9 36  1  0  0  0  0
 10 13  1  0  0  0  0
 10 37  1  0  0  0  0
 11 15  1  0  0  0  0
 11 38  1  0  0  0  0
 11 39  1  0  0  0  0
 12 16  1  0  0  0  0
 12 40  1  0  0  0  0
 12 41  1  0  0  0  0
 13 15  1  0  0  0  0
 13 18  1  0  0  0  0
 13 42  1  0  0  0  0
 14 16  1  0  0  0  0
 14 43  1  0  0  0  0
 15 44  1  0  0  0  0
 15 45  1  0  0  0  0
 16 46  1  0  0  0  0
 16 47  1  0  0  0  0
 17 48  1  0  0  0  0
 17 49  1  0  0  0  0
 17 50  1  0  0  0  0
 18 20  1  0  0  0  0
 18 21  1  0  0  0  0
 18 51  1  0  0  0  0
 19 52  1  0  0  0  0
 19 53  1  0  0  0  0
 19 54  1  0  0  0  0
 20 57  1  0  0  0  0
 20 58  1  0  0  0  0
 20 59  1  0  0  0  0
 22 23  1  0  0  0  0
 23 25  2  0  0  0  0
 24 26  1  0  0  0  0
 24 61  1  0  0  0  0
 24 62  1  0  0  0  0
 25 27  1  0  0  0  0
 25 63  1  0  0  0  0
 26 29  2  0  0  0  0
 26 30  1  0  0  0  0
 27 31  2  0  0  0  0
 27 64  1  0  0  0  0
 28 31  1  0  0  0  0
 28 65  1  0  0  0  0
 29 32  1  0  0  0  0
 29 66  1  0  0  0  0
 30 33  2  0  0  0  0
 30 67  1  0  0  0  0
 31 68  1  0  0  0  0
 32 34  2  0  0  0  0
 32 69  1  0  0  0  0
 33 34  1  0  0  0  0
 33 70  1  0  0  0  0
 34 71  1  0  0  0  0
M  END
> <PUBCHEM_COMPOUND_CID>
45361601

> <PUBCHEM_CONFORMER_RMSD>
1

> <PUBCHEM_CONFORMER_DIVERSEORDER>
2
143
100
43
139
56
190
75
63
166
160
163
135
50
105
146
97
217
14
23
169
61
98
183
193
5
91
144
161
205
34
175
87
130
83
121
101
189
209
207
25
214
176
29
180
125
88
174
44
206
102
208
65
49
140
1
198
131
60
195
45
200
111
220
159
55
115
215
218
79
112
157
89
51
149
126
221
129
164
73
64
188
96
59
167
128
32
212
201
191
117
47
17
99
90
132
16
6
94
186
133
13
187
122
151
203
46
72
71
31
54
68
153
74
172
192
211
57
171
216
95
109
165
19
184
219
103
137
21
76
145
138
173
18
120
62
42
41
155
147
156
119
7
10
148
196
66
110
182
134
39
150
84
158
178
181
127
58
15
36
124
4
141
78
40
170
210
108
197
69
3
52
107
168
177
30
123
37
93
20
179
136
85
92
154
11
113
104
67
116
106
199
202
81
86
213
204
22
8
70
194
12
118
38
77
53
28
152
9
185
80
48
162
33
114
82
35
27
26
142
24

> <PUBCHEM_MMFF94_PARTIAL_CHARGES>
35
1 -0.68
10 0.28
14 0.3
18 0.06
2 -0.57
21 0.57
22 0.54
23 0.4
24 0.44
25 -0.15
26 -0.14
27 -0.15
28 0.16
29 -0.15
3 -0.57
30 -0.15
31 -0.15
32 -0.15
33 -0.15
34 -0.15
4 -0.73
5 -0.73
55 0.37
56 0.4
6 -0.62
60 0.37
63 0.15
64 0.15
65 0.15
66 0.15
67 0.15
68 0.15
69 0.15
70 0.15
71 0.15

> <PUBCHEM_EFFECTIVE_ROTOR_COUNT>
9.6

> <PUBCHEM_PHARMACOPHORE_FEATURES>
12
1 1 acceptor
1 1 donor
1 2 acceptor
1 20 hydrophobe
1 3 acceptor
1 4 donor
1 5 donor
1 6 acceptor
6 26 29 30 32 33 34 rings
6 6 23 25 27 28 31 rings
6 7 8 10 11 13 15 rings
6 7 8 9 12 14 16 rings

> <PUBCHEM_HEAVY_ATOM_COUNT>
34

> <PUBCHEM_ATOM_DEF_STEREO_COUNT>
6

> <PUBCHEM_ATOM_UDEF_STEREO_COUNT>
1

> <PUBCHEM_BOND_DEF_STEREO_COUNT>
0

> <PUBCHEM_BOND_UDEF_STEREO_COUNT>
0

> <PUBCHEM_ISOTOPIC_ATOM_COUNT>
0

> <PUBCHEM_COMPONENT_COUNT>
1

> <PUBCHEM_CACTVS_TAUTO_COUNT>
4

> <PUBCHEM_CONFORMER_ID>
02B429C100000002

> <PUBCHEM_MMFF94_ENERGY>
96.5229

> <PUBCHEM_FEATURE_SELFOVERLAP>
60.912

> <PUBCHEM_SHAPE_FINGERPRINT>
10391435 84 17749112223337867859
10533779 47 10087644844966755877
10673678 19 18411985758503749542
10677351 14 18342450449405344573
10816530 90 18059849602082529248
10906281 52 17846511292083574619
11007060 377 18334585624929638081
11135609 187 18197217156224415792
11211813 74 18410008823770596109
11408170 132 18338797802151943709
13165053 68 18117846731777533007
13617811 41 18343861134897235432
13947947 19 17704063024223613719
14117953 113 18410018754563237892
150020 25 18408612460713301566
15183329 4 17203607077962143933
15361156 5 18341891918720316375
15840311 113 18409451380001522470
15890870 6 18336269042105197588
16120349 18 18335698342990946685
16992787 43 18130790087690351137
16994733 274 17676767591913390781
17324776 126 15189985517696149740
17686467 74 18041000657758863677
18608769 82 18339923813933235443
19319366 153 18412258407381455398
20554085 129 16443063902334366376
20715895 44 18410011079287393596
20812841 46 8214145157289898845
21049683 118 17967806202804509402
21049683 271 18343865533064864137
21150785 3 18408324372093311077
21360443 126 18410291457918802730
21521721 280 18411986849425618011
21781055 127 15123246442148900075
22149856 69 17346042147530192763
23522609 53 17630911351022009729
23569914 2 17099697727068910212
3044373 193 17458063759933606380
34797466 226 17988931050419513886
3552219 110 17846510218727003393
4073 2 18260831514647230595
4098825 35 18335137605325562087
4149490 64 18260546714991468514
44317340 157 18342458149596157318
4625314 4 18337112272137557615
5109719 28 18188501266899273168
5265222 85 18411981378085896495
9831232 110 11887956536338251060

> <PUBCHEM_SHAPE_MULTIPOLES>
667.15
25.53
3.12
1.51
35.4
0.2
0.29
-12.75
-5.67
-6.44
-0.15
-1.05
-0.06
0.33

> <PUBCHEM_SHAPE_SELFOVERLAP>
1413.293

> <PUBCHEM_SHAPE_VOLUME>
367.9

> <PUBCHEM_COORDINATE_TYPE>
2
5
10

$$$$
