71693076
  -OEChem-12032416303D

 52 54  0     1  0  0  0  0  0999 V2000
   -4.6475    1.8332    1.9979 N   0  0  0  0  0  0  0  0  0  0  0  0
    2.1501   -1.0098   -0.5548 N   0  0  0  0  0  0  0  0  0  0  0  0
    1.8633   -0.2349    1.5085 N   0  0  0  0  0  0  0  0  0  0  0  0
   -2.4615    1.0741   -0.1112 C   0  0  2  0  0  0  0  0  0  0  0  0
   -1.1658    0.3859    0.3404 C   0  0  0  0  0  0  0  0  0  0  0  0
   -3.6952    0.2700    0.3609 C   0  0  1  0  0  0  0  0  0  0  0  0
   -1.0457   -1.0733   -0.1489 C   0  0  2  0  0  0  0  0  0  0  0  0
   -2.4781    1.2827   -1.6317 C   0  0  0  0  0  0  0  0  0  0  0  0
   -2.3638   -1.8307   -0.0924 C   0  0  0  0  0  0  0  0  0  0  0  0
   -3.5353   -1.2138    0.1484 C   0  0  0  0  0  0  0  0  0  0  0  0
    0.0733   -1.7639    0.6407 C   0  0  0  0  0  0  0  0  0  0  0  0
   -4.0137    0.5363    1.8358 C   0  0  0  0  0  0  0  0  0  0  0  0
   -1.0905    1.6730   -2.1302 C   0  0  0  0  0  0  0  0  0  0  0  0
   -3.5075    2.3423   -2.0122 C   0  0  0  0  0  0  0  0  0  0  0  0
   -2.3292   -3.3073   -0.3765 C   0  0  0  0  0  0  0  0  0  0  0  0
    1.3589   -0.9917    0.5600 C   0  0  0  0  0  0  0  0  0  0  0  0
    3.2376   -0.2114   -0.3093 C   0  0  0  0  0  0  0  0  0  0  0  0
    3.0354    0.2605    0.9848 C   0  0  0  0  0  0  0  0  0  0  0  0
    1.8908   -1.7387   -1.7759 C   0  0  0  0  0  0  0  0  0  0  0  0
    4.3469    0.1282   -1.0844 C   0  0  0  0  0  0  0  0  0  0  0  0
    3.9863    1.1234    1.5554 C   0  0  0  0  0  0  0  0  0  0  0  0
    5.2832    0.9880   -0.5008 C   0  0  0  0  0  0  0  0  0  0  0  0
    5.1081    1.4780    0.7955 C   0  0  0  0  0  0  0  0  0  0  0  0
   -2.4653    2.0677    0.3552 H   0  0  0  0  0  0  0  0  0  0  0  0
   -1.1596    0.3855    1.4398 H   0  0  0  0  0  0  0  0  0  0  0  0
   -0.2856    0.9806    0.0779 H   0  0  0  0  0  0  0  0  0  0  0  0
   -4.5749    0.5606   -0.2259 H   0  0  0  0  0  0  0  0  0  0  0  0
   -0.7643   -1.0630   -1.2077 H   0  0  0  0  0  0  0  0  0  0  0  0
   -2.7574    0.3540   -2.1447 H   0  0  0  0  0  0  0  0  0  0  0  0
   -4.4512   -1.8005    0.1767 H   0  0  0  0  0  0  0  0  0  0  0  0
    0.2406   -2.7911    0.2996 H   0  0  0  0  0  0  0  0  0  0  0  0
   -0.2140   -1.8470    1.6978 H   0  0  0  0  0  0  0  0  0  0  0  0
   -3.1225    0.4768    2.4690 H   0  0  0  0  0  0  0  0  0  0  0  0
   -4.7153   -0.2183    2.2122 H   0  0  0  0  0  0  0  0  0  0  0  0
   -0.6863    2.5283   -1.5769 H   0  0  0  0  0  0  0  0  0  0  0  0
   -1.1461    1.9781   -3.1824 H   0  0  0  0  0  0  0  0  0  0  0  0
   -0.3668    0.8562   -2.1053 H   0  0  0  0  0  0  0  0  0  0  0  0
   -3.2902    3.3011   -1.5288 H   0  0  0  0  0  0  0  0  0  0  0  0
   -4.5259    2.0511   -1.7422 H   0  0  0  0  0  0  0  0  0  0  0  0
   -3.5019    2.5110   -3.0949 H   0  0  0  0  0  0  0  0  0  0  0  0
   -1.7764   -3.5037   -1.3010 H   0  0  0  0  0  0  0  0  0  0  0  0
   -1.8492   -3.8488    0.4444 H   0  0  0  0  0  0  0  0  0  0  0  0
   -3.3334   -3.7265   -0.5029 H   0  0  0  0  0  0  0  0  0  0  0  0
   -4.0024    2.5780    1.7411 H   0  0  0  0  0  0  0  0  0  0  0  0
   -4.8698    1.9812    2.9815 H   0  0  0  0  0  0  0  0  0  0  0  0
    2.8407   -1.9955   -2.2516 H   0  0  0  0  0  0  0  0  0  0  0  0
    1.3570   -2.6654   -1.5610 H   0  0  0  0  0  0  0  0  0  0  0  0
    1.3046   -1.0978   -2.4383 H   0  0  0  0  0  0  0  0  0  0  0  0
    4.4862   -0.2470   -2.0918 H   0  0  0  0  0  0  0  0  0  0  0  0
    3.8592    1.5095    2.5617 H   0  0  0  0  0  0  0  0  0  0  0  0
    6.1635    1.2806   -1.0679 H   0  0  0  0  0  0  0  0  0  0  0  0
    5.8530    2.1449    1.2220 H   0  0  0  0  0  0  0  0  0  0  0  0
  1 12  1  0  0  0  0
  1 44  1  0  0  0  0
  1 45  1  0  0  0  0
  2 16  1  0  0  0  0
  2 17  1  0  0  0  0
  2 19  1  0  0  0  0
  3 16  2  0  0  0  0
  3 18  1  0  0  0  0
  4  5  1  0  0  0  0
  4  6  1  0  0  0  0
  4  8  1  0  0  0  0
  4 24  1  0  0  0  0
  5  7  1  0  0  0  0
  5 25  1  0  0  0  0
  5 26  1  0  0  0  0
  6 10  1  0  0  0  0
  6 12  1  0  0  0  0
  6 27  1  0  0  0  0
  7  9  1  0  0  0  0
  7 11  1  0  0  0  0
  7 28  1  0  0  0  0
  8 13  1  0  0  0  0
  8 14  1  0  0  0  0
  8 29  1  0  0  0  0
  9 10  2  0  0  0  0
  9 15  1  0  0  0  0
 10 30  1  0  0  0  0
 11 16  1  0  0  0  0
 11 31  1  0  0  0  0
 11 32  1  0  0  0  0
 12 33  1  0  0  0  0
 12 34  1  0  0  0  0
 13 35  1  0  0  0  0
 13 36  1  0  0  0  0
 13 37  1  0  0  0  0
 14 38  1  0  0  0  0
 14 39  1  0  0  0  0
 14 40  1  0  0  0  0
 15 41  1  0  0  0  0
 15 42  1  0  0  0  0
 15 43  1  0  0  0  0
 17 18  1  0  0  0  0
 17 20  2  0  0  0  0
 18 21  2  0  0  0  0
 19 46  1  0  0  0  0
 19 47  1  0  0  0  0
 19 48  1  0  0  0  0
 20 22  1  0  0  0  0
 20 49  1  0  0  0  0
 21 23  1  0  0  0  0
 21 50  1  0  0  0  0
 22 23  2  0  0  0  0
 22 51  1  0  0  0  0
 23 52  1  0  0  0  0
M  END
> <PUBCHEM_COMPOUND_CID>
71693076

> <PUBCHEM_CONFORMER_RMSD>
0.8

> <PUBCHEM_CONFORMER_DIVERSEORDER>
6
14
13
11
15
16
7
18
3
10
17
1
5
9
4
12
2
8

> <PUBCHEM_MMFF94_PARTIAL_CHARGES>
25
1 -0.99
10 -0.29
11 0.18
12 0.27
15 0.14
16 0.01
17 -0.15
18 0.23
19 0.26
2 0.05
20 -0.15
21 -0.15
22 -0.15
23 -0.15
3 -0.57
30 0.15
44 0.36
45 0.36
49 0.15
50 0.15
51 0.15
52 0.15
6 0.14
7 0.14
9 -0.28

> <PUBCHEM_EFFECTIVE_ROTOR_COUNT>
4.8

> <PUBCHEM_PHARMACOPHORE_FEATURES>
7
1 1 cation
1 1 donor
3 2 3 16 cation
3 8 13 14 hydrophobe
5 2 3 16 17 18 rings
6 17 18 20 21 22 23 rings
6 4 5 6 7 9 10 rings

> <PUBCHEM_HEAVY_ATOM_COUNT>
23

> <PUBCHEM_ATOM_DEF_STEREO_COUNT>
3

> <PUBCHEM_ATOM_UDEF_STEREO_COUNT>
0

> <PUBCHEM_BOND_DEF_STEREO_COUNT>
0

> <PUBCHEM_BOND_UDEF_STEREO_COUNT>
0

> <PUBCHEM_ISOTOPIC_ATOM_COUNT>
0

> <PUBCHEM_COMPONENT_COUNT>
1

> <PUBCHEM_CACTVS_TAUTO_COUNT>
2

> <PUBCHEM_CONFORMER_ID>
0445F31400000006

> <PUBCHEM_MMFF94_ENERGY>
45.8293

> <PUBCHEM_FEATURE_SELFOVERLAP>
35.628

> <PUBCHEM_SHAPE_FINGERPRINT>
10165383 225 18341066119960696371
10369192 42 17843972666017200740
10498660 4 18409157797216961900
10670039 82 17531251634850514606
11132069 177 18335137617682917399
11370993 144 18201730517573568838
11405975 8 18343867701944045290
11595378 159 17313098649058347332
12173636 292 18201722795649528217
12403259 415 18261678073790356364
12403814 3 18040434395647003297
12596602 18 15502377859283940044
12633257 1 18334856155828849120
13224815 77 17603300444978772940
13544653 18 11097851874575325678
13583140 156 16588013619777693989
14341114 328 16371020576225209521
14468879 13 17823690859661449957
14739800 52 17679293338138163932
14840074 17 17823150058579957501
16988056 13 15955235542761114261
18186145 218 18343300358101397338
19862831 5 14261630629682229494
20645477 56 18410296903952950383
21033648 29 18262233318150962188
21623110 236 18191870247651606237
21756936 100 17846778486014269905
21864079 5 17603305968649769836
23227448 37 18335695095848172957
23402539 116 18189325952233552742
23557571 272 18335706048178158590
23559900 14 18131073685029921054
2838139 119 16843868984368399088
3268164 11 18266728250644923910
376196 1 16884668257043969117
3797600 57 15794023296522637239
392239 28 16661222462593331824
469060 322 17894917377548564707
5104073 3 17168419351293507168
5252454 2 18410856538260067898
574716 61 14835833058317300632
633830 44 17561082510208542256
7808743 9 18259981587415339468

> <PUBCHEM_SHAPE_MULTIPOLES>
458.39
10.39
2.56
1.92
7.8
0.86
0.06
-5.02
-2.49
-2.63
0.99
-0.89
-0.99
0.79

> <PUBCHEM_SHAPE_SELFOVERLAP>
969.147

> <PUBCHEM_SHAPE_VOLUME>
254.6

> <PUBCHEM_COORDINATE_TYPE>
2
5
10

$$$$
