45783323
  -OEChem-12032416273D

 62 65  0     1  0  0  0  0  0999 V2000
   -2.2958    1.0884    0.8613 O   0  0  0  0  0  0  0  0  0  0  0  0
    7.8594   -0.1476   -0.1700 O   0  0  0  0  0  0  0  0  0  0  0  0
   -5.1184    0.4050    0.2795 N   0  0  1  0  0  0  0  0  0  0  0  0
    3.9343   -0.3663   -0.1367 N   0  0  0  0  0  0  0  0  0  0  0  0
   -1.9159    0.6818   -1.3083 N   0  0  0  0  0  0  0  0  0  0  0  0
   -0.9320    0.7878    0.7544 N   0  0  0  0  0  0  0  0  0  0  0  0
    2.9346   -0.4829   -2.2798 N   0  0  0  0  0  0  0  0  0  0  0  0
    7.9102    1.2296    1.6725 N   0  0  0  0  0  0  0  0  0  0  0  0
   -4.2787    1.2888   -0.5535 C   0  0  1  0  0  0  0  0  0  0  0  0
   -4.6579    2.7154   -0.1154 C   0  0  0  0  0  0  0  0  0  0  0  0
   -6.3257    1.1655    0.6022 C   0  0  0  0  0  0  0  0  0  0  0  0
   -5.4266   -0.8666   -0.3621 C   0  0  0  0  0  0  0  0  0  0  0  0
   -5.7584    2.5341    0.9203 C   0  0  0  0  0  0  0  0  0  0  0  0
   -5.7888   -2.0029    0.6283 C   0  0  0  0  0  0  0  0  0  0  0  0
   -2.7997    1.0032   -0.3977 C   0  0  0  0  0  0  0  0  0  0  0  0
   -7.0730   -1.5997    1.3776 C   0  0  0  0  0  0  0  0  0  0  0  0
   -4.6687   -2.2216    1.6607 C   0  0  0  0  0  0  0  0  0  0  0  0
   -6.0505   -3.3207   -0.1222 C   0  0  0  0  0  0  0  0  0  0  0  0
    6.2721   -0.5351    1.5767 C   0  0  0  0  0  0  0  0  0  0  0  0
    5.1229    0.4279    1.8681 C   0  0  0  0  0  0  0  0  0  0  0  0
    5.8040   -1.7178    0.7316 C   0  0  0  0  0  0  0  0  0  0  0  0
    4.3494    0.8266    0.6115 C   0  0  0  0  0  0  0  0  0  0  0  0
    4.9992   -1.3044   -0.5024 C   0  0  0  0  0  0  0  0  0  0  0  0
    2.8032   -0.2539   -0.9539 C   0  0  0  0  0  0  0  0  0  0  0  0
   -0.7851    0.5600   -0.5542 C   0  0  0  0  0  0  0  0  0  0  0  0
    7.4139    0.1882    0.9246 C   0  0  0  0  0  0  0  0  0  0  0  0
    0.4773    0.2072   -1.1398 C   0  0  0  0  0  0  0  0  0  0  0  0
    1.6093    0.0903   -0.3407 C   0  0  0  0  0  0  0  0  0  0  0  0
    0.5726   -0.0205   -2.5083 C   0  0  0  0  0  0  0  0  0  0  0  0
    1.8128   -0.3599   -3.0243 C   0  0  0  0  0  0  0  0  0  0  0  0
   -4.5400    1.1828   -1.6158 H   0  0  0  0  0  0  0  0  0  0  0  0
   -3.8250    3.2947    0.2973 H   0  0  0  0  0  0  0  0  0  0  0  0
   -5.0548    3.2690   -0.9753 H   0  0  0  0  0  0  0  0  0  0  0  0
   -7.0118    1.2353   -0.2515 H   0  0  0  0  0  0  0  0  0  0  0  0
   -6.8793    0.8399    1.4785 H   0  0  0  0  0  0  0  0  0  0  0  0
   -6.2108   -0.7512   -1.1231 H   0  0  0  0  0  0  0  0  0  0  0  0
   -4.5397   -1.2114   -0.9126 H   0  0  0  0  0  0  0  0  0  0  0  0
   -6.5121    3.3251    0.8632 H   0  0  0  0  0  0  0  0  0  0  0  0
   -5.3257    2.5464    1.9286 H   0  0  0  0  0  0  0  0  0  0  0  0
   -7.8190   -1.1444    0.7180 H   0  0  0  0  0  0  0  0  0  0  0  0
   -7.5506   -2.4918    1.8045 H   0  0  0  0  0  0  0  0  0  0  0  0
   -6.8734   -0.9609    2.2419 H   0  0  0  0  0  0  0  0  0  0  0  0
   -3.7279   -2.4868    1.1651 H   0  0  0  0  0  0  0  0  0  0  0  0
   -4.9228   -3.0356    2.3494 H   0  0  0  0  0  0  0  0  0  0  0  0
   -4.4853   -1.3276    2.2664 H   0  0  0  0  0  0  0  0  0  0  0  0
   -6.3127   -4.1308    0.5675 H   0  0  0  0  0  0  0  0  0  0  0  0
   -5.1625   -3.6349   -0.6818 H   0  0  0  0  0  0  0  0  0  0  0  0
   -6.8734   -3.2089   -0.8369 H   0  0  0  0  0  0  0  0  0  0  0  0
    6.6559   -0.9246    2.5293 H   0  0  0  0  0  0  0  0  0  0  0  0
    5.4505    1.3332    2.3894 H   0  0  0  0  0  0  0  0  0  0  0  0
    4.4252   -0.0758    2.5514 H   0  0  0  0  0  0  0  0  0  0  0  0
    5.1630   -2.3510    1.3599 H   0  0  0  0  0  0  0  0  0  0  0  0
    6.6492   -2.3455    0.4245 H   0  0  0  0  0  0  0  0  0  0  0  0
    3.4972    1.4420    0.9218 H   0  0  0  0  0  0  0  0  0  0  0  0
    4.9729    1.4579   -0.0340 H   0  0  0  0  0  0  0  0  0  0  0  0
    5.6461   -0.8493   -1.2610 H   0  0  0  0  0  0  0  0  0  0  0  0
    4.5720   -2.2129   -0.9455 H   0  0  0  0  0  0  0  0  0  0  0  0
    1.5643    0.2405    0.7340 H   0  0  0  0  0  0  0  0  0  0  0  0
   -0.2792    0.0572   -3.1759 H   0  0  0  0  0  0  0  0  0  0  0  0
    8.6823    1.7912    1.3291 H   0  0  0  0  0  0  0  0  0  0  0  0
    7.5708    1.4533    2.6021 H   0  0  0  0  0  0  0  0  0  0  0  0
    1.9407   -0.5480   -4.0853 H   0  0  0  0  0  0  0  0  0  0  0  0
  1  6  1  0  0  0  0
  1 15  1  0  0  0  0
  2 26  2  0  0  0  0
  3  9  1  0  0  0  0
  3 11  1  0  0  0  0
  3 12  1  0  0  0  0
  4 22  1  0  0  0  0
  4 23  1  0  0  0  0
  4 24  1  0  0  0  0
  5 15  2  0  0  0  0
  5 25  1  0  0  0  0
  6 25  2  0  0  0  0
  7 24  2  0  0  0  0
  7 30  1  0  0  0  0
  8 26  1  0  0  0  0
  8 60  1  0  0  0  0
  8 61  1  0  0  0  0
  9 10  1  0  0  0  0
  9 15  1  0  0  0  0
  9 31  1  0  0  0  0
 10 13  1  0  0  0  0
 10 32  1  0  0  0  0
 10 33  1  0  0  0  0
 11 13  1  0  0  0  0
 11 34  1  0  0  0  0
 11 35  1  0  0  0  0
 12 14  1  0  0  0  0
 12 36  1  0  0  0  0
 12 37  1  0  0  0  0
 13 38  1  0  0  0  0
 13 39  1  0  0  0  0
 14 16  1  0  0  0  0
 14 17  1  0  0  0  0
 14 18  1  0  0  0  0
 16 40  1  0  0  0  0
 16 41  1  0  0  0  0
 16 42  1  0  0  0  0
 17 43  1  0  0  0  0
 17 44  1  0  0  0  0
 17 45  1  0  0  0  0
 18 46  1  0  0  0  0
 18 47  1  0  0  0  0
 18 48  1  0  0  0  0
 19 20  1  0  0  0  0
 19 21  1  0  0  0  0
 19 26  1  0  0  0  0
 19 49  1  0  0  0  0
 20 22  1  0  0  0  0
 20 50  1  0  0  0  0
 20 51  1  0  0  0  0
 21 23  1  0  0  0  0
 21 52  1  0  0  0  0
 21 53  1  0  0  0  0
 22 54  1  0  0  0  0
 22 55  1  0  0  0  0
 23 56  1  0  0  0  0
 23 57  1  0  0  0  0
 24 28  1  0  0  0  0
 25 27  1  0  0  0  0
 27 28  2  0  0  0  0
 27 29  1  0  0  0  0
 28 58  1  0  0  0  0
 29 30  2  0  0  0  0
 29 59  1  0  0  0  0
 30 62  1  0  0  0  0
M  END
> <PUBCHEM_COMPOUND_CID>
45783323

> <PUBCHEM_CONFORMER_RMSD>
1

> <PUBCHEM_CONFORMER_DIVERSEORDER>
21
80
153
46
18
109
126
116
39
28
56
129
145
100
98
105
91
62
38
16
151
120
104
87
19
86
68
53
148
158
72
73
71
139
127
61
75
77
4
143
45
124
63
101
155
138
79
52
1
69
110
128
147
20
121
26
96
113
154
159
24
89
133
41
135
40
144
76
47
131
64
74
108
60
65
51
93
122
67
78
97
35
8
11
44
31
90
37
25
156
103
15
59
70
137
152
81
99
49
84
55
146
58
82
22
112
27
48
92
160
2
132
94
106
114
149
107
134
9
42
102
23
95
33
118
43
54
125
57
29
6
117
7
141
88
50
14
123
119
30
157
34
5
83
115
111
142
17
130
85
13
32
140
3
136
66
12
10
150
36

> <PUBCHEM_MMFF94_PARTIAL_CHARGES>
27
1 -0.02
11 0.27
12 0.27
15 0.3
19 0.06
2 -0.57
22 0.37
23 0.37
24 0.41
25 0.46
26 0.57
27 0.05
28 -0.15
29 -0.15
3 -0.81
30 0.16
4 -0.84
5 -0.57
58 0.15
59 0.15
6 -0.41
60 0.37
61 0.37
62 0.15
7 -0.62
8 -0.8
9 0.45

> <PUBCHEM_EFFECTIVE_ROTOR_COUNT>
8.2

> <PUBCHEM_PHARMACOPHORE_FEATURES>
10
1 2 acceptor
1 3 cation
1 8 donor
3 4 7 24 cation
3 5 6 25 cation
4 14 16 17 18 hydrophobe
5 1 5 6 15 25 rings
5 3 9 10 11 13 rings
6 4 19 20 21 22 23 rings
6 7 24 27 28 29 30 rings

> <PUBCHEM_HEAVY_ATOM_COUNT>
30

> <PUBCHEM_ATOM_DEF_STEREO_COUNT>
1

> <PUBCHEM_ATOM_UDEF_STEREO_COUNT>
0

> <PUBCHEM_BOND_DEF_STEREO_COUNT>
0

> <PUBCHEM_BOND_UDEF_STEREO_COUNT>
0

> <PUBCHEM_ISOTOPIC_ATOM_COUNT>
0

> <PUBCHEM_COMPONENT_COUNT>
1

> <PUBCHEM_CACTVS_TAUTO_COUNT>
2

> <PUBCHEM_CONFORMER_ID>
02BA991B00000015

> <PUBCHEM_MMFF94_ENERGY>
80.8048

> <PUBCHEM_FEATURE_SELFOVERLAP>
50.747

> <PUBCHEM_SHAPE_FINGERPRINT>
10 15 17846495932810681541
10319926 262 18412548682555329197
10835480 77 17274541997814862801
11135926 11 13045935764315544193
11146346 171 18130520682463162814
11273773 118 9367072203032188543
11646440 116 16559030506629207232
12166972 35 17095528395902648132
12516196 113 16008750174318628380
12596602 18 18411976923929926218
12838862 33 14129335235404088208
13177829 20 18408600379719202216
13685833 64 14779554452792027028
13782708 43 17603860083765642776
14251752 14 8286202751543961436
14461889 52 18202285796731282335
15021287 119 16515692134691254071
15183329 4 14779262033658228787
15188451 53 18186799205793115455
15320294 125 17894915165883838071
15326921 28 17755859719897512181
15348495 7 18412824685654326273
15519825 34 18189325921963027754
15728490 51 17821727261012143330
17349148 13 16950574267975676013
17913733 40 16845576409133743887
18222031 100 16370722626128069356
19611394 137 18130790096063475456
20028762 73 17603585231623929754
21033648 29 17703519792296333893
21130935 74 18335417912024228666
21623969 137 17346884450730343879
23081809 10 17603596222085907333
23389318 12 16443347611479950334
23522609 53 17025185966963369996
23559900 14 18056501468800719031
23569914 152 13626852854710984851
24771293 8 17240204335778685348
2838139 119 12895068539752418962
312425 54 18335421210178725515
3178227 256 17131834304796456280
3383291 50 17895199952153643635
3418910 222 18271537463119086040
3504750 166 17532360972545863749
3663271 9 18408881811397950784
394071 54 15841835555599003400
397830 11 18273215313356010062
4073 2 18271811176993842391
4340502 62 18271523105211375886
4403749 210 18272079505244472047
445580 37 10447926170614627827
474113 269 9366806083271176368
484985 159 17096103488930999403
5080951 261 18335693941572504837
5104073 3 17631463271599296539
5364581 5 18202280355572552281
5969126 39 15357685375715625054
68570916 9 18260271879770050204
9953998 17 18413108347397047145

> <PUBCHEM_SHAPE_MULTIPOLES>
575.76
23.54
2.41
2.07
15.6
0.92
1.2
5.74
-12.9
-6.69
-0.69
2.31
-0.02
0.43

> <PUBCHEM_SHAPE_SELFOVERLAP>
1221.673

> <PUBCHEM_SHAPE_VOLUME>
322.3

> <PUBCHEM_COORDINATE_TYPE>
2
5
10

$$$$
