11884162
  -OEChem-12032416163D

 50 52  0     1  0  0  0  0  0999 V2000
   -1.9075   -0.9186   -1.3426 O   0  0  0  0  0  0  0  0  0  0  0  0
   -3.1222   -2.3237    1.0976 O   0  0  0  0  0  0  0  0  0  0  0  0
    0.2799   -1.6426    0.2059 O   0  0  0  0  0  0  0  0  0  0  0  0
   -6.7162    0.0465    0.3069 O   0  0  0  0  0  0  0  0  0  0  0  0
    1.1646    0.1477    1.3204 O   0  0  0  0  0  0  0  0  0  0  0  0
    7.6235    2.6154    0.1626 O   0  0  0  0  0  0  0  0  0  0  0  0
   -4.7136    0.3625   -0.8255 N   0  0  0  0  0  0  0  0  0  0  0  0
   -6.2401    2.0803   -0.7034 N   0  0  0  0  0  0  0  0  0  0  0  0
    2.4378   -1.1153   -0.1843 N   0  0  0  0  0  0  0  0  0  0  0  0
   -3.2601   -0.9747    0.6044 C   0  0  1  0  0  0  0  0  0  0  0  0
   -1.9086   -0.5688    0.0516 C   0  0  1  0  0  0  0  0  0  0  0  0
   -4.1669   -0.9540   -0.6040 C   0  0  2  0  0  0  0  0  0  0  0  0
   -0.9584   -1.4323    0.8460 C   0  0  1  0  0  0  0  0  0  0  0  0
   -3.2214   -1.3554   -1.7231 C   0  0  0  0  0  0  0  0  0  0  0  0
   -1.7449   -2.7146    0.9993 C   0  0  0  0  0  0  0  0  0  0  0  0
   -5.9600    0.7635   -0.3471 C   0  0  0  0  0  0  0  0  0  0  0  0
    1.3020   -0.7722    0.5233 C   0  0  0  0  0  0  0  0  0  0  0  0
   -7.4672    2.7464   -0.3352 C   0  0  0  0  0  0  0  0  0  0  0  0
    3.7039   -0.4874   -0.1556 C   0  0  0  0  0  0  0  0  0  0  0  0
   -7.4211    3.2437    1.0949 C   0  0  0  0  0  0  0  0  0  0  0  0
    4.7435   -0.9779   -0.9459 C   0  0  0  0  0  0  0  0  0  0  0  0
    3.9141    0.6216    0.6638 C   0  0  0  0  0  0  0  0  0  0  0  0
    5.9932   -0.3591   -0.9167 C   0  0  0  0  0  0  0  0  0  0  0  0
    5.1638    1.2403    0.6930 C   0  0  0  0  0  0  0  0  0  0  0  0
    6.2034    0.7501   -0.0973 C   0  0  0  0  0  0  0  0  0  0  0  0
    7.5064    1.3952   -0.0677 C   0  0  0  0  0  0  0  0  0  0  0  0
    8.7720    0.5834   -0.3214 C   0  0  0  0  0  0  0  0  0  0  0  0
   -3.5933   -0.3486    1.4382 H   0  0  0  0  0  0  0  0  0  0  0  0
   -1.6974    0.5019    0.1259 H   0  0  0  0  0  0  0  0  0  0  0  0
   -4.9936   -1.6683   -0.5252 H   0  0  0  0  0  0  0  0  0  0  0  0
   -0.8318   -1.0062    1.8509 H   0  0  0  0  0  0  0  0  0  0  0  0
   -3.4791   -0.9252   -2.6957 H   0  0  0  0  0  0  0  0  0  0  0  0
   -3.1807   -2.4451   -1.8284 H   0  0  0  0  0  0  0  0  0  0  0  0
   -1.4574   -3.2748    1.8943 H   0  0  0  0  0  0  0  0  0  0  0  0
   -1.6267   -3.3810    0.1375 H   0  0  0  0  0  0  0  0  0  0  0  0
   -4.1376    1.0525   -1.2985 H   0  0  0  0  0  0  0  0  0  0  0  0
   -5.5502    2.5992   -1.2377 H   0  0  0  0  0  0  0  0  0  0  0  0
    2.3565   -1.9180   -0.8035 H   0  0  0  0  0  0  0  0  0  0  0  0
   -8.3014    2.0488   -0.4645 H   0  0  0  0  0  0  0  0  0  0  0  0
   -7.6066    3.5840   -1.0256 H   0  0  0  0  0  0  0  0  0  0  0  0
   -8.3485    3.7669    1.3468 H   0  0  0  0  0  0  0  0  0  0  0  0
   -6.5857    3.9367    1.2413 H   0  0  0  0  0  0  0  0  0  0  0  0
   -7.2939    2.4167    1.8012 H   0  0  0  0  0  0  0  0  0  0  0  0
    4.5920   -1.8398   -1.5906 H   0  0  0  0  0  0  0  0  0  0  0  0
    3.1580    1.0559    1.3031 H   0  0  0  0  0  0  0  0  0  0  0  0
    6.7812   -0.7541   -1.5519 H   0  0  0  0  0  0  0  0  0  0  0  0
    5.3112    2.1012    1.3403 H   0  0  0  0  0  0  0  0  0  0  0  0
    9.6038    1.0397    0.2236 H   0  0  0  0  0  0  0  0  0  0  0  0
    8.6584   -0.4390    0.0490 H   0  0  0  0  0  0  0  0  0  0  0  0
    8.9949    0.5781   -1.3911 H   0  0  0  0  0  0  0  0  0  0  0  0
  1 11  1  0  0  0  0
  1 14  1  0  0  0  0
  2 10  1  0  0  0  0
  2 15  1  0  0  0  0
  3 13  1  0  0  0  0
  3 17  1  0  0  0  0
  4 16  2  0  0  0  0
  5 17  2  0  0  0  0
  6 26  2  0  0  0  0
  7 12  1  0  0  0  0
  7 16  1  0  0  0  0
  7 36  1  0  0  0  0
  8 16  1  0  0  0  0
  8 18  1  0  0  0  0
  8 37  1  0  0  0  0
  9 17  1  0  0  0  0
  9 19  1  0  0  0  0
  9 38  1  0  0  0  0
 10 11  1  0  0  0  0
 10 12  1  0  0  0  0
 10 28  1  0  0  0  0
 11 13  1  0  0  0  0
 11 29  1  0  0  0  0
 12 14  1  0  0  0  0
 12 30  1  0  0  0  0
 13 15  1  0  0  0  0
 13 31  1  0  0  0  0
 14 32  1  0  0  0  0
 14 33  1  0  0  0  0
 15 34  1  0  0  0  0
 15 35  1  0  0  0  0
 18 20  1  0  0  0  0
 18 39  1  0  0  0  0
 18 40  1  0  0  0  0
 19 21  2  0  0  0  0
 19 22  1  0  0  0  0
 20 41  1  0  0  0  0
 20 42  1  0  0  0  0
 20 43  1  0  0  0  0
 21 23  1  0  0  0  0
 21 44  1  0  0  0  0
 22 24  2  0  0  0  0
 22 45  1  0  0  0  0
 23 25  2  0  0  0  0
 23 46  1  0  0  0  0
 24 25  1  0  0  0  0
 24 47  1  0  0  0  0
 25 26  1  0  0  0  0
 26 27  1  0  0  0  0
 27 48  1  0  0  0  0
 27 49  1  0  0  0  0
 27 50  1  0  0  0  0
M  END
> <PUBCHEM_COMPOUND_CID>
11884162

> <PUBCHEM_CONFORMER_RMSD>
1

> <PUBCHEM_CONFORMER_DIVERSEORDER>
1
34
32
2
61
30
23
50
20
44
74
58
35
64
26
39
13
25
4
54
21
19
41
52
51
72
73
71
10
16
56
53
29
18
67
59
62
28
46
14
65
63
37
55
8
11
36
49
60
17
38
22
57
9
12
3
70
15
45
40
43
27
5
48
42
69
6
47
31
66
7
24
68
33

> <PUBCHEM_MMFF94_PARTIAL_CHARGES>
33
1 -0.56
10 0.28
11 0.28
12 0.3
13 0.28
14 0.28
15 0.28
16 0.69
17 0.78
18 0.3
19 0.12
2 -0.56
21 -0.15
22 -0.15
23 -0.15
24 -0.15
25 0.09
26 0.42
27 0.06
3 -0.43
36 0.37
37 0.37
38 0.37
4 -0.57
44 0.15
45 0.15
46 0.15
47 0.15
5 -0.57
6 -0.57
7 -0.73
8 -0.73
9 -0.55

> <PUBCHEM_EFFECTIVE_ROTOR_COUNT>
10.2

> <PUBCHEM_PHARMACOPHORE_FEATURES>
11
1 1 acceptor
1 2 acceptor
1 4 acceptor
1 5 acceptor
1 6 acceptor
1 7 donor
1 8 donor
1 9 donor
5 1 10 11 12 14 rings
5 2 10 11 13 15 rings
6 19 21 22 23 24 25 rings

> <PUBCHEM_HEAVY_ATOM_COUNT>
27

> <PUBCHEM_ATOM_DEF_STEREO_COUNT>
4

> <PUBCHEM_ATOM_UDEF_STEREO_COUNT>
0

> <PUBCHEM_BOND_DEF_STEREO_COUNT>
0

> <PUBCHEM_BOND_UDEF_STEREO_COUNT>
0

> <PUBCHEM_ISOTOPIC_ATOM_COUNT>
0

> <PUBCHEM_COMPONENT_COUNT>
1

> <PUBCHEM_CACTVS_TAUTO_COUNT>
27

> <PUBCHEM_CONFORMER_ID>
00B5568200000001

> <PUBCHEM_MMFF94_ENERGY>
67.7427

> <PUBCHEM_FEATURE_SELFOVERLAP>
56.59

> <PUBCHEM_SHAPE_FINGERPRINT>
10 15 17022897947979886087
10369192 42 18409165511542663543
106641 1 17022906761906983379
10835480 77 18412546531172281050
11181472 205 18187369818933576444
11315181 36 15482394256755201154
125118 31 18260831557786742372
12596602 18 11169908381612138022
12616971 3 15068621626001657110
12895837 130 18341330084798794909
13668630 136 11384110838872998965
13690498 29 17273682347399669159
13782708 43 9079117756431863766
14068700 675 12319734774003878051
14178184 131 10881700008905840601
14251764 18 11746934296388822426
14394314 77 18335985277404944717
14556957 393 15913059753998200088
14931854 50 14764630789503887333
15183329 4 17275386490841361979
15778101 99 18260266373400333099
16126227 98 18335424548027944025
1768 4 18410582748040614337
18222031 100 14117800228372479218
190975 80 8502651507150563030
2026 5 10303821977139085860
20621476 66 18333452040561437277
21033648 29 18339913944171716522
21298829 104 18409731754981847340
21307412 95 12822998838903401621
21424621 283 18334576811239943379
21585482 111 18190739735599208805
21623969 137 11530750506268688432
21756936 100 18334573551892866231
23559900 14 14620214412668268995
3014063 24 9727342529195573265
3633792 109 18272093752199975826
406291 66 9294990376815916253
4073 2 18187930629381725130
445580 204 18413107238778695385
44802255 64 17704071807157531711
4516262 110 18263073324651243821
504579 68 15913333507108592136
5104073 3 16081944783221756726
5385378 56 17676482801037363594
5718773 13 9799684905224363901
5758199 1 18187366494227683339
5937810 71 18059862744677823465
59682541 35 12035451657844332268
59682541 52 16558744577312207661
636775 72 18335980951697377988
6475588 51 18343017761707057353
6691757 9 16298666182893977019
9689198 14 18411423869771149281

> <PUBCHEM_SHAPE_MULTIPOLES>
505.49
25.62
2.8
1.17
13.01
1.4
-0.11
24.82
-2.75
-4.86
0.66
-0.82
-0.3
0.29

> <PUBCHEM_SHAPE_SELFOVERLAP>
1066.923

> <PUBCHEM_SHAPE_VOLUME>
284.1

> <PUBCHEM_COORDINATE_TYPE>
2
5
10

$$$$
