75368660
  -OEChem-12032416393D

 48 51  0     1  0  0  0  0  0999 V2000
    8.1057   -0.3005   -1.0196 Cl  0  0  0  0  0  0  0  0  0  0  0  0
   -6.8868    1.2222   -0.0315 O   0  0  0  0  0  0  0  0  0  0  0  0
   -2.5589   -2.6222   -0.0277 O   0  0  0  0  0  0  0  0  0  0  0  0
   -0.8650   -1.0069   -0.2283 N   0  0  0  0  0  0  0  0  0  0  0  0
   -2.9997   -0.3104   -0.1857 N   0  0  0  0  0  0  0  0  0  0  0  0
    1.5611    0.3277    0.2656 N   0  0  2  0  0  0  0  0  0  0  0  0
   -0.7866    0.4190   -0.4677 C   0  0  1  0  0  0  0  0  0  0  0  0
   -2.2099    0.9088   -0.2083 C   0  0  0  0  0  0  0  0  0  0  0  0
   -4.4367   -0.2878   -0.0725 C   0  0  0  0  0  0  0  0  0  0  0  0
    0.2824    1.0501    0.4237 C   0  0  0  0  0  0  0  0  0  0  0  0
    0.3524   -1.7910   -0.2127 C   0  0  0  0  0  0  0  0  0  0  0  0
   -2.1875   -1.4613   -0.1378 C   0  0  0  0  0  0  0  0  0  0  0  0
    1.4134   -1.0929    0.6417 C   0  0  0  0  0  0  0  0  0  0  0  0
   -5.0759    0.2726   -1.3434 C   0  0  0  0  0  0  0  0  0  0  0  0
   -4.8820    0.5211    1.1467 C   0  0  0  0  0  0  0  0  0  0  0  0
    2.6065    0.9614    1.0688 C   0  0  0  0  0  0  0  0  0  0  0  0
   -6.5826    0.4158   -1.1694 C   0  0  0  0  0  0  0  0  0  0  0  0
   -6.3996    0.6486    1.1814 C   0  0  0  0  0  0  0  0  0  0  0  0
    3.9831    0.6464    0.5465 C   0  0  0  0  0  0  0  0  0  0  0  0
    4.6664   -0.4759    1.0146 C   0  0  0  0  0  0  0  0  0  0  0  0
    4.5750    1.4765   -0.4055 C   0  0  0  0  0  0  0  0  0  0  0  0
    5.9416   -0.7680    0.5310 C   0  0  0  0  0  0  0  0  0  0  0  0
    5.8502    1.1845   -0.8891 C   0  0  0  0  0  0  0  0  0  0  0  0
    6.5336    0.0622   -0.4208 C   0  0  0  0  0  0  0  0  0  0  0  0
   -0.5305    0.5516   -1.5272 H   0  0  0  0  0  0  0  0  0  0  0  0
   -2.2900    1.4045    0.7639 H   0  0  0  0  0  0  0  0  0  0  0  0
   -2.5479    1.5872   -0.9955 H   0  0  0  0  0  0  0  0  0  0  0  0
   -4.7808   -1.3223    0.0550 H   0  0  0  0  0  0  0  0  0  0  0  0
    0.3990    2.1012    0.1332 H   0  0  0  0  0  0  0  0  0  0  0  0
   -0.0316    1.0300    1.4761 H   0  0  0  0  0  0  0  0  0  0  0  0
    0.6926   -1.8837   -1.2506 H   0  0  0  0  0  0  0  0  0  0  0  0
    0.1365   -2.7956    0.1645 H   0  0  0  0  0  0  0  0  0  0  0  0
    1.1379   -1.1799    1.7013 H   0  0  0  0  0  0  0  0  0  0  0  0
    2.3439   -1.6470    0.4940 H   0  0  0  0  0  0  0  0  0  0  0  0
   -4.8520   -0.3693   -2.2031 H   0  0  0  0  0  0  0  0  0  0  0  0
   -4.6651    1.2642   -1.5673 H   0  0  0  0  0  0  0  0  0  0  0  0
   -4.4684    1.5356    1.1010 H   0  0  0  0  0  0  0  0  0  0  0  0
   -4.5158    0.0616    2.0717 H   0  0  0  0  0  0  0  0  0  0  0  0
    2.5270    0.6974    2.1325 H   0  0  0  0  0  0  0  0  0  0  0  0
    2.4975    2.0548    1.0419 H   0  0  0  0  0  0  0  0  0  0  0  0
   -7.0146    0.9034   -2.0491 H   0  0  0  0  0  0  0  0  0  0  0  0
   -7.0662   -0.5624   -1.0630 H   0  0  0  0  0  0  0  0  0  0  0  0
   -6.8779   -0.3247    1.3428 H   0  0  0  0  0  0  0  0  0  0  0  0
   -6.6999    1.3044    2.0049 H   0  0  0  0  0  0  0  0  0  0  0  0
    4.2279   -1.1232    1.7692 H   0  0  0  0  0  0  0  0  0  0  0  0
    4.0526    2.3527   -0.7805 H   0  0  0  0  0  0  0  0  0  0  0  0
    6.4637   -1.6439    0.9074 H   0  0  0  0  0  0  0  0  0  0  0  0
    6.2988    1.8397   -1.6315 H   0  0  0  0  0  0  0  0  0  0  0  0
  1 24  1  0  0  0  0
  2 17  1  0  0  0  0
  2 18  1  0  0  0  0
  3 12  2  0  0  0  0
  4  7  1  0  0  0  0
  4 11  1  0  0  0  0
  4 12  1  0  0  0  0
  5  8  1  0  0  0  0
  5  9  1  0  0  0  0
  5 12  1  0  0  0  0
  6 10  1  0  0  0  0
  6 13  1  0  0  0  0
  6 16  1  0  0  0  0
  7  8  1  0  0  0  0
  7 10  1  0  0  0  0
  7 25  1  0  0  0  0
  8 26  1  0  0  0  0
  8 27  1  0  0  0  0
  9 14  1  0  0  0  0
  9 15  1  0  0  0  0
  9 28  1  0  0  0  0
 10 29  1  0  0  0  0
 10 30  1  0  0  0  0
 11 13  1  0  0  0  0
 11 31  1  0  0  0  0
 11 32  1  0  0  0  0
 13 33  1  0  0  0  0
 13 34  1  0  0  0  0
 14 17  1  0  0  0  0
 14 35  1  0  0  0  0
 14 36  1  0  0  0  0
 15 18  1  0  0  0  0
 15 37  1  0  0  0  0
 15 38  1  0  0  0  0
 16 19  1  0  0  0  0
 16 39  1  0  0  0  0
 16 40  1  0  0  0  0
 17 41  1  0  0  0  0
 17 42  1  0  0  0  0
 18 43  1  0  0  0  0
 18 44  1  0  0  0  0
 19 20  2  0  0  0  0
 19 21  1  0  0  0  0
 20 22  1  0  0  0  0
 20 45  1  0  0  0  0
 21 23  2  0  0  0  0
 21 46  1  0  0  0  0
 22 24  2  0  0  0  0
 22 47  1  0  0  0  0
 23 24  1  0  0  0  0
 23 48  1  0  0  0  0
M  END
> <PUBCHEM_COMPOUND_CID>
75368660

> <PUBCHEM_CONFORMER_RMSD>
0.8

> <PUBCHEM_CONFORMER_DIVERSEORDER>
2
32
13
27
37
24
40
36
43
39
28
5
17
18
42
16
21
11
12
41
8
23
3
34
10
14
33
45
22
38
6
35
31
25
15
26
7
1
20
9
44
19
4
29
30

> <PUBCHEM_MMFF94_PARTIAL_CHARGES>
26
1 -0.18
10 0.27
11 0.3
12 0.69
13 0.27
16 0.41
17 0.28
18 0.28
19 -0.14
2 -0.56
20 -0.15
21 -0.15
22 -0.15
23 -0.15
24 0.18
3 -0.57
4 -0.66
45 0.15
46 0.15
47 0.15
48 0.15
5 -0.66
6 -0.81
7 0.3
8 0.3
9 0.3

> <PUBCHEM_EFFECTIVE_ROTOR_COUNT>
5.4

> <PUBCHEM_PHARMACOPHORE_FEATURES>
7
1 2 acceptor
1 3 acceptor
1 6 cation
5 4 5 7 8 12 rings
6 19 20 21 22 23 24 rings
6 2 9 14 15 17 18 rings
6 4 6 7 10 11 13 rings

> <PUBCHEM_HEAVY_ATOM_COUNT>
24

> <PUBCHEM_ATOM_DEF_STEREO_COUNT>
1

> <PUBCHEM_ATOM_UDEF_STEREO_COUNT>
0

> <PUBCHEM_BOND_DEF_STEREO_COUNT>
0

> <PUBCHEM_BOND_UDEF_STEREO_COUNT>
0

> <PUBCHEM_ISOTOPIC_ATOM_COUNT>
0

> <PUBCHEM_COMPONENT_COUNT>
1

> <PUBCHEM_CACTVS_TAUTO_COUNT>
1

> <PUBCHEM_CONFORMER_ID>
047E08D400000002

> <PUBCHEM_MMFF94_ENERGY>
55.8441

> <PUBCHEM_FEATURE_SELFOVERLAP>
35.618

> <PUBCHEM_SHAPE_FINGERPRINT>
10 15 17821451253465237267
10066227 112 18335419110151227332
10299344 5 18408325484257758258
106641 1 14273745061613467065
10670039 82 18130790018749380449
10835480 77 18129940221685527600
10906281 52 18343030969152374263
11089746 13 17561359595538766281
11315181 36 17489870470350039353
11724838 91 8502651494418609464
11796584 16 18272655688451392838
12011746 2 18342450448440148825
12236239 1 17822008735471622924
12596602 18 16008743594070333497
12643181 29 18343581863412391558
12730499 353 15864067664218197224
13073987 5 9511196139697839670
13533116 47 17917711241387638982
13668630 136 14189580740942517396
13885169 127 16559035960773461984
13914758 101 15195295196036512882
14251764 18 18411134744761488715
14294032 229 17985841327851092697
14341114 176 17313103046798961552
14617045 38 18409731746987810154
14933364 13 17095242514315559716
15183329 4 18272933817088962280
15461852 350 17531240687322151327
15716309 27 11241964876317778981
15849732 13 17313106353828775951
17834072 8 18272931635493469726
18335252 98 15864077563405859336
19489759 90 16128659652252211611
20281389 69 18335697252111860561
21267235 1 18338517564389181447
220451 1 17967810561410213610
22079108 93 15647052694382925680
2215653 11 17918275363903600902
22224240 67 12324243875837587080
23035841 295 18408040715088571882
23198884 109 17203609298428541979
23402539 116 16702297962486582273
23559900 14 18129373964269522432
23569943 247 17130439986266298054
249057 3 18334860541580984044
2838139 119 18060415816232434601
29717793 49 17988649606040427828
3004659 81 18410292524135867224
3009799 131 11600006531102992651
335352 9 18412824702680954812
34797466 226 13190344544034900218
3545911 37 18410290311151504419
3633792 109 13973697078757345677
397830 11 16081949164020424369
4073 2 17968099793699202282
4340502 62 16370724807570776290
4938544 92 13984930802697759007
5104073 3 18264198278826550698
542803 24 17312814991958616792
59682541 35 11241980286929313508
59755656 215 18272090465985167470
59755656 520 18343015606307629367
6328613 192 18410294747905969040

> <PUBCHEM_SHAPE_MULTIPOLES>
469.1
20.89
1.58
1.12
6.39
0.69
0
-4.45
3.71
-0.2
0.02
-0.36
-0.16
-0.45

> <PUBCHEM_SHAPE_SELFOVERLAP>
985.885

> <PUBCHEM_SHAPE_VOLUME>
265.7

> <PUBCHEM_COORDINATE_TYPE>
2
5
10

$$$$
