45783963
  -OEChem-12032416243D

 38 40  0     1  0  0  0  0  0999 V2000
    2.7381   -1.3524   -0.2554 O   0  0  0  0  0  0  0  0  0  0  0  0
   -3.3842   -0.0872   -1.3356 O   0  0  0  0  0  0  0  0  0  0  0  0
   -4.6397    1.8664    0.0391 O   0  0  0  0  0  0  0  0  0  0  0  0
   -1.7985   -1.1575   -0.0398 N   0  0  0  0  0  0  0  0  0  0  0  0
    1.2899    0.3895   -0.1780 N   0  0  0  0  0  0  0  0  0  0  0  0
    0.3869   -1.9779   -0.4896 C   0  0  1  0  0  0  0  0  0  0  0  0
   -0.1025   -2.5318    0.8577 C   0  0  0  0  0  0  0  0  0  0  0  0
   -0.9258   -1.5319   -1.1457 C   0  0  0  0  0  0  0  0  0  0  0  0
   -1.2588   -1.6139    1.2360 C   0  0  0  0  0  0  0  0  0  0  0  0
    1.4504   -0.9097   -0.3019 C   0  0  0  0  0  0  0  0  0  0  0  0
   -2.9714   -0.4502   -0.2330 C   0  0  0  0  0  0  0  0  0  0  0  0
   -3.7551   -0.1373    1.0164 C   0  0  0  0  0  0  0  0  0  0  0  0
    3.4641   -0.2088   -0.0841 C   0  0  0  0  0  0  0  0  0  0  0  0
    2.5748    0.8548   -0.0372 C   0  0  0  0  0  0  0  0  0  0  0  0
   -5.0041    0.6346    0.6495 C   0  0  0  0  0  0  0  0  0  0  0  0
    4.8442   -0.0922    0.0272 C   0  0  0  0  0  0  0  0  0  0  0  0
    3.0784    2.1522    0.1341 C   0  0  0  0  0  0  0  0  0  0  0  0
    5.3303    1.2087    0.1973 C   0  0  0  0  0  0  0  0  0  0  0  0
    4.4670    2.3101    0.2501 C   0  0  0  0  0  0  0  0  0  0  0  0
   -5.7838    2.6345   -0.3072 C   0  0  0  0  0  0  0  0  0  0  0  0
    0.8404   -2.7772   -1.0891 H   0  0  0  0  0  0  0  0  0  0  0  0
   -0.4846   -3.5501    0.7106 H   0  0  0  0  0  0  0  0  0  0  0  0
    0.6673   -2.5699    1.6348 H   0  0  0  0  0  0  0  0  0  0  0  0
   -1.4096   -2.3664   -1.6663 H   0  0  0  0  0  0  0  0  0  0  0  0
   -0.8132   -0.6991   -1.8471 H   0  0  0  0  0  0  0  0  0  0  0  0
   -0.9112   -0.7346    1.7889 H   0  0  0  0  0  0  0  0  0  0  0  0
   -2.0217   -2.1281    1.8264 H   0  0  0  0  0  0  0  0  0  0  0  0
   -4.0317   -1.0684    1.5200 H   0  0  0  0  0  0  0  0  0  0  0  0
   -3.1231    0.4637    1.6793 H   0  0  0  0  0  0  0  0  0  0  0  0
   -5.6347    0.0543   -0.0355 H   0  0  0  0  0  0  0  0  0  0  0  0
   -5.5813    0.8387    1.5589 H   0  0  0  0  0  0  0  0  0  0  0  0
    5.5031   -0.9504   -0.0149 H   0  0  0  0  0  0  0  0  0  0  0  0
    2.4189    3.0126    0.1764 H   0  0  0  0  0  0  0  0  0  0  0  0
    6.4019    1.3677    0.2907 H   0  0  0  0  0  0  0  0  0  0  0  0
    4.8804    3.3068    0.3836 H   0  0  0  0  0  0  0  0  0  0  0  0
   -6.4057    2.0933   -1.0268 H   0  0  0  0  0  0  0  0  0  0  0  0
   -6.3664    2.8798    0.5860 H   0  0  0  0  0  0  0  0  0  0  0  0
   -5.4458    3.5657   -0.7697 H   0  0  0  0  0  0  0  0  0  0  0  0
  1 10  1  0  0  0  0
  1 13  1  0  0  0  0
  2 11  2  0  0  0  0
  3 15  1  0  0  0  0
  3 20  1  0  0  0  0
  4  8  1  0  0  0  0
  4  9  1  0  0  0  0
  4 11  1  0  0  0  0
  5 10  2  0  0  0  0
  5 14  1  0  0  0  0
  6  7  1  0  0  0  0
  6  8  1  0  0  0  0
  6 10  1  0  0  0  0
  6 21  1  0  0  0  0
  7  9  1  0  0  0  0
  7 22  1  0  0  0  0
  7 23  1  0  0  0  0
  8 24  1  0  0  0  0
  8 25  1  0  0  0  0
  9 26  1  0  0  0  0
  9 27  1  0  0  0  0
 11 12  1  0  0  0  0
 12 15  1  0  0  0  0
 12 28  1  0  0  0  0
 12 29  1  0  0  0  0
 13 14  1  0  0  0  0
 13 16  2  0  0  0  0
 14 17  2  0  0  0  0
 15 30  1  0  0  0  0
 15 31  1  0  0  0  0
 16 18  1  0  0  0  0
 16 32  1  0  0  0  0
 17 19  1  0  0  0  0
 17 33  1  0  0  0  0
 18 19  2  0  0  0  0
 18 34  1  0  0  0  0
 19 35  1  0  0  0  0
 20 36  1  0  0  0  0
 20 37  1  0  0  0  0
 20 38  1  0  0  0  0
M  END
> <PUBCHEM_COMPOUND_CID>
45783963

> <PUBCHEM_CONFORMER_RMSD>
0.8

> <PUBCHEM_CONFORMER_DIVERSEORDER>
1
58
54
51
17
63
35
11
81
62
65
36
9
71
74
64
75
69
32
49
16
8
67
77
56
66
61
22
38
57
20
78
73
6
48
55
2
50
12
76
59
41
15
83
19
84
86
60
18
45
44
28
10
37
70
85
47
40
80
33
46
53
30
4
52
43
34
25
14
31
13
27
68
82
39
7
79
42
72
5
26
24
29
23
3
21

> <PUBCHEM_MMFF94_PARTIAL_CHARGES>
23
1 -0.28
10 0.3
11 0.57
12 0.06
13 0.14
14 0.23
15 0.28
16 -0.15
17 -0.15
18 -0.15
19 -0.15
2 -0.57
20 0.28
3 -0.56
32 0.15
33 0.15
34 0.15
35 0.15
4 -0.66
5 -0.57
6 0.18
8 0.3
9 0.3

> <PUBCHEM_EFFECTIVE_ROTOR_COUNT>
6

> <PUBCHEM_PHARMACOPHORE_FEATURES>
5
1 2 acceptor
1 3 acceptor
5 1 5 10 13 14 rings
5 4 6 7 8 9 rings
6 13 14 16 17 18 19 rings

> <PUBCHEM_HEAVY_ATOM_COUNT>
20

> <PUBCHEM_ATOM_DEF_STEREO_COUNT>
1

> <PUBCHEM_ATOM_UDEF_STEREO_COUNT>
0

> <PUBCHEM_BOND_DEF_STEREO_COUNT>
0

> <PUBCHEM_BOND_UDEF_STEREO_COUNT>
0

> <PUBCHEM_ISOTOPIC_ATOM_COUNT>
0

> <PUBCHEM_COMPONENT_COUNT>
1

> <PUBCHEM_CACTVS_TAUTO_COUNT>
1

> <PUBCHEM_CONFORMER_ID>
02BA9B9B00000001

> <PUBCHEM_MMFF94_ENERGY>
39.4035

> <PUBCHEM_FEATURE_SELFOVERLAP>
25.497

> <PUBCHEM_SHAPE_FINGERPRINT>
10411042 1 17474671650532207422
11046707 91 8430327826286541974
11069576 57 14476415742254596556
11089746 13 17704068547514613080
12107183 9 18262789680204761714
122479 349 18337956791356269370
12596602 18 14562538383376433349
12633257 1 15719685320127775937
12769317 202 18342168921855415057
13103583 49 12901547893376978605
13402501 40 18408323263865934117
13544653 18 9223232970251435375
13583140 156 15503198102993898727
13785724 45 17906168448087108074
14123255 352 18411983550869518377
14178000 29 10663810880397461747
14251764 38 18265335195124332461
14576447 43 9151181952377961344
15188451 53 16081944775228058219
15196674 1 18412545435285753004
15238133 3 18187373146884345596
15375462 189 12324247195267045054
17980427 26 18262787467848704767
1813 80 8430319086023164819
193927 3 11097854068976521137
20374829 77 10663825148278467951
20621476 66 18410298051321421036
20715895 44 18340767040034755169
20832881 197 18117844296362504778
20871999 31 12463301271549512851
21033648 29 18411131480655162848
21033650 10 14261086337341477851
21421861 104 17822556232807992690
21475661 188 18334860493766683245
22950370 63 8935004784548745347
23379529 103 11310897688807303965
23402655 69 18060700589142303916
23559900 14 18272374200732074882
270888 7 18411698781510733249
2838139 119 18341888585018624973
2916195 48 18410574011153389753
314194 84 11025809716370297945
3268164 11 14189032088792728314
335352 9 18412265026347213974
351380 3 11458426847085167313
4259306 186 9439410111688160666
46194498 28 12894482457447734651
465052 167 11097858479781463680
474 4 18413392020816745011
5104073 3 18189327047882171946
56616090 13 18411134723692710779
57724786 102 18187086200119390916
59124914 9 18409446955826673432
59682541 52 16845022190701077516
6328613 192 18335710502856368604
633830 44 18411132515763386535
7970288 3 8790622389568187264

> <PUBCHEM_SHAPE_MULTIPOLES>
384.02
12.31
2.78
0.97
4.75
0.68
-0.01
11.36
-0.7
0.94
-0.14
0.71
-0.33
0.55

> <PUBCHEM_SHAPE_SELFOVERLAP>
820.789

> <PUBCHEM_SHAPE_VOLUME>
214.7

> <PUBCHEM_COORDINATE_TYPE>
2
5
10

$$$$
