11941556
  -OEChem-12032416363D

 55 58  0     1  0  0  0  0  0999 V2000
   -3.0721    3.9298    0.1424 S   0  0  0  0  0  0  0  0  0  0  0  0
   -3.3264   -2.8123    1.4605 O   0  0  0  0  0  0  0  0  0  0  0  0
   -0.1665   -1.5276   -2.5550 O   0  0  0  0  0  0  0  0  0  0  0  0
   -4.7708    1.4248    1.7228 O   0  0  0  0  0  0  0  0  0  0  0  0
   -1.9658   -1.3124   -1.1388 N   0  0  0  0  0  0  0  0  0  0  0  0
   -4.1835    0.7880   -0.4339 N   0  0  0  0  0  0  0  0  0  0  0  0
   -1.0778   -2.4516    1.4243 N   0  0  0  0  0  0  0  0  0  0  0  0
   -2.5477   -0.9510    0.1404 C   0  0  1  0  0  0  0  0  0  0  0  0
   -4.0135   -0.6237   -0.1765 C   0  0  2  0  0  0  0  0  0  0  0  0
   -4.3009   -1.4532   -1.4297 C   0  0  0  0  0  0  0  0  0  0  0  0
   -2.9778   -1.4281   -2.1788 C   0  0  0  0  0  0  0  0  0  0  0  0
   -2.3684   -2.1683    1.0287 C   0  0  0  0  0  0  0  0  0  0  0  0
   -0.6179   -1.3780   -1.4196 C   0  0  0  0  0  0  0  0  0  0  0  0
    0.3385   -1.2874   -0.2857 C   0  0  0  0  0  0  0  0  0  0  0  0
    0.1276   -1.8686    0.9762 C   0  0  0  0  0  0  0  0  0  0  0  0
   -4.5500    1.6981    0.5442 C   0  0  0  0  0  0  0  0  0  0  0  0
    1.5910   -0.7213   -0.5855 C   0  0  0  0  0  0  0  0  0  0  0  0
    1.2002   -1.9269    1.8833 C   0  0  0  0  0  0  0  0  0  0  0  0
    2.6286   -0.7465    0.3451 C   0  0  0  0  0  0  0  0  0  0  0  0
    2.4372   -1.3611    1.5758 C   0  0  0  0  0  0  0  0  0  0  0  0
   -4.6787    3.1082    0.0182 C   0  0  0  0  0  0  0  0  0  0  0  0
    3.9087   -0.1553    0.0212 C   0  0  0  0  0  0  0  0  0  0  0  0
    4.1877    1.1798    0.3212 C   0  0  0  0  0  0  0  0  0  0  0  0
    4.8777   -0.9432   -0.6033 C   0  0  0  0  0  0  0  0  0  0  0  0
    5.4303    1.7246   -0.0025 C   0  0  0  0  0  0  0  0  0  0  0  0
    3.1591    2.0379    0.9908 C   0  0  0  0  0  0  0  0  0  0  0  0
    6.1202   -0.3985   -0.9268 C   0  0  0  0  0  0  0  0  0  0  0  0
    6.3966    0.9354   -0.6266 C   0  0  0  0  0  0  0  0  0  0  0  0
    5.7532    3.1498    0.3072 C   0  0  0  0  0  0  0  0  0  0  0  0
   -3.5388    5.5384   -0.5395 C   0  0  0  0  0  0  0  0  0  0  0  0
   -2.0178   -0.0994    0.5835 H   0  0  0  0  0  0  0  0  0  0  0  0
   -4.6936   -0.8975    0.6370 H   0  0  0  0  0  0  0  0  0  0  0  0
   -5.1287   -1.0720   -2.0353 H   0  0  0  0  0  0  0  0  0  0  0  0
   -4.5361   -2.4852   -1.1421 H   0  0  0  0  0  0  0  0  0  0  0  0
   -2.8075   -2.3253   -2.7814 H   0  0  0  0  0  0  0  0  0  0  0  0
   -2.8959   -0.5495   -2.8285 H   0  0  0  0  0  0  0  0  0  0  0  0
   -3.9684    1.1323   -1.3655 H   0  0  0  0  0  0  0  0  0  0  0  0
   -0.9929   -3.1084    2.1966 H   0  0  0  0  0  0  0  0  0  0  0  0
    1.7641   -0.2675   -1.5606 H   0  0  0  0  0  0  0  0  0  0  0  0
    1.0728   -2.3941    2.8582 H   0  0  0  0  0  0  0  0  0  0  0  0
    3.2371   -1.4070    2.3110 H   0  0  0  0  0  0  0  0  0  0  0  0
   -5.4228    3.6386    0.6207 H   0  0  0  0  0  0  0  0  0  0  0  0
   -5.0189    3.0957   -1.0221 H   0  0  0  0  0  0  0  0  0  0  0  0
    4.6809   -1.9851   -0.8457 H   0  0  0  0  0  0  0  0  0  0  0  0
    3.1703    3.0608    0.6004 H   0  0  0  0  0  0  0  0  0  0  0  0
    2.1327    1.6950    0.8355 H   0  0  0  0  0  0  0  0  0  0  0  0
    3.3475    2.0710    2.0690 H   0  0  0  0  0  0  0  0  0  0  0  0
    6.8724   -1.0127   -1.4130 H   0  0  0  0  0  0  0  0  0  0  0  0
    7.3694    1.3441   -0.8871 H   0  0  0  0  0  0  0  0  0  0  0  0
    6.8147    3.3667    0.1428 H   0  0  0  0  0  0  0  0  0  0  0  0
    5.1788    3.8223   -0.3379 H   0  0  0  0  0  0  0  0  0  0  0  0
    5.5460    3.3808    1.3573 H   0  0  0  0  0  0  0  0  0  0  0  0
   -2.6650    6.1952   -0.5434 H   0  0  0  0  0  0  0  0  0  0  0  0
   -4.3178    6.0000    0.0728 H   0  0  0  0  0  0  0  0  0  0  0  0
   -3.8948    5.4275   -1.5670 H   0  0  0  0  0  0  0  0  0  0  0  0
  1 21  1  0  0  0  0
  1 30  1  0  0  0  0
  2 12  2  0  0  0  0
  3 13  2  0  0  0  0
  4 16  2  0  0  0  0
  5  8  1  0  0  0  0
  5 11  1  0  0  0  0
  5 13  1  0  0  0  0
  6  9  1  0  0  0  0
  6 16  1  0  0  0  0
  6 37  1  0  0  0  0
  7 12  1  0  0  0  0
  7 15  1  0  0  0  0
  7 38  1  0  0  0  0
  8  9  1  0  0  0  0
  8 12  1  0  0  0  0
  8 31  1  0  0  0  0
  9 10  1  0  0  0  0
  9 32  1  0  0  0  0
 10 11  1  0  0  0  0
 10 33  1  0  0  0  0
 10 34  1  0  0  0  0
 11 35  1  0  0  0  0
 11 36  1  0  0  0  0
 13 14  1  0  0  0  0
 14 15  2  0  0  0  0
 14 17  1  0  0  0  0
 15 18  1  0  0  0  0
 16 21  1  0  0  0  0
 17 19  2  0  0  0  0
 17 39  1  0  0  0  0
 18 20  2  0  0  0  0
 18 40  1  0  0  0  0
 19 20  1  0  0  0  0
 19 22  1  0  0  0  0
 20 41  1  0  0  0  0
 21 42  1  0  0  0  0
 21 43  1  0  0  0  0
 22 23  1  0  0  0  0
 22 24  2  0  0  0  0
 23 25  2  0  0  0  0
 23 26  1  0  0  0  0
 24 27  1  0  0  0  0
 24 44  1  0  0  0  0
 25 28  1  0  0  0  0
 25 29  1  0  0  0  0
 26 45  1  0  0  0  0
 26 46  1  0  0  0  0
 26 47  1  0  0  0  0
 27 28  2  0  0  0  0
 27 48  1  0  0  0  0
 28 49  1  0  0  0  0
 29 50  1  0  0  0  0
 29 51  1  0  0  0  0
 29 52  1  0  0  0  0
 30 53  1  0  0  0  0
 30 54  1  0  0  0  0
 30 55  1  0  0  0  0
M  END
> <PUBCHEM_COMPOUND_CID>
11941556

> <PUBCHEM_CONFORMER_RMSD>
0.8

> <PUBCHEM_CONFORMER_DIVERSEORDER>
3
10
12
1
16
7
14
6
11
2
15
9
4
13
8
5

> <PUBCHEM_MMFF94_PARTIAL_CHARGES>
35
1 -0.46
11 0.3
12 0.57
13 0.54
14 0.09
15 0.12
16 0.57
17 -0.15
18 -0.15
2 -0.57
20 -0.15
21 0.29
23 -0.14
24 -0.15
25 -0.14
26 0.14
27 -0.15
28 -0.15
29 0.14
3 -0.57
30 0.23
37 0.37
38 0.37
39 0.15
4 -0.57
40 0.15
41 0.15
44 0.15
48 0.15
49 0.15
5 -0.66
6 -0.73
7 -0.55
8 0.36
9 0.3

> <PUBCHEM_EFFECTIVE_ROTOR_COUNT>
5.8

> <PUBCHEM_PHARMACOPHORE_FEATURES>
10
1 2 acceptor
1 3 acceptor
1 30 hydrophobe
1 4 acceptor
1 6 donor
1 7 donor
5 5 8 9 10 11 rings
6 14 15 17 18 19 20 rings
6 22 23 24 25 27 28 rings
7 5 7 8 12 13 14 15 rings

> <PUBCHEM_HEAVY_ATOM_COUNT>
30

> <PUBCHEM_ATOM_DEF_STEREO_COUNT>
2

> <PUBCHEM_ATOM_UDEF_STEREO_COUNT>
0

> <PUBCHEM_BOND_DEF_STEREO_COUNT>
0

> <PUBCHEM_BOND_UDEF_STEREO_COUNT>
0

> <PUBCHEM_ISOTOPIC_ATOM_COUNT>
0

> <PUBCHEM_COMPONENT_COUNT>
1

> <PUBCHEM_CACTVS_TAUTO_COUNT>
6

> <PUBCHEM_CONFORMER_ID>
00B636B400000003

> <PUBCHEM_MMFF94_ENERGY>
105.3513

> <PUBCHEM_FEATURE_SELFOVERLAP>
50.804

> <PUBCHEM_SHAPE_FINGERPRINT>
10670039 82 18202275909637452133
11578080 2 17417269636591586391
12390115 104 17895197739918047786
13761468 95 17915473696296298033
14347329 18 18059851710325967489
14739800 52 18335968831694593680
14790565 3 18409729534884084066
15163728 17 17917439687605741951
15183329 4 17346327037480202238
15238133 3 18339347570897570370
15575132 122 18340202986754942445
17349148 13 14764082206775668382
17844677 252 18341899653318125934
21033648 29 18267861864755875658
21223535 225 18411416199123381652
21756936 100 18408604755547344722
23379529 103 10375570604404109441
23516275 100 17908404089691033024
23559900 14 17749106712963684342
23569914 2 17840265030946148960
249057 25 18194095491919799387
2838139 119 18341049627476255348
312425 83 18130507452935197246
32027 91 8717181606055767504
392239 28 17168419476042081492
44802255 64 17775286097256988710
469060 322 16153707677957837419
50677037 204 18336262461366545892
508706 21 18410008870608885856
5104073 3 17603860131205852370
5326457 24 9799396837435742280
6036956 94 18334016120651635429
633830 44 18410006646185175686
6608658 132 18340753932121323309
7288768 16 17749115439798413267
7808743 9 18270677563626487977

> <PUBCHEM_SHAPE_MULTIPOLES>
588.68
14.16
4.82
1.71
12.73
7.73
-0.28
10.89
-1.5
-6.37
0.51
-0.92
-1.34
-0.22

> <PUBCHEM_SHAPE_SELFOVERLAP>
1265.551

> <PUBCHEM_SHAPE_VOLUME>
327.4

> <PUBCHEM_COORDINATE_TYPE>
2
5
10

$$$$
