38031028
  -OEChem-12032416263D

 60 62  0     1  0  0  0  0  0999 V2000
   -5.4693    1.1294    0.0540 F   0  0  0  0  0  0  0  0  0  0  0  0
   -1.4132    0.5143    0.7381 O   0  0  0  0  0  0  0  0  0  0  0  0
    3.7783   -1.2246    0.8221 N   0  0  0  0  0  0  0  0  0  0  0  0
   -1.7623    2.7239    0.7270 N   0  0  0  0  0  0  0  0  0  0  0  0
   -2.9749    2.0987    0.5040 N   0  0  0  0  0  0  0  0  0  0  0  0
    1.8499   -0.0514   -1.1623 C   0  0  1  0  0  0  0  0  0  0  0  0
    3.3743    0.2214   -1.1219 C   0  0  1  0  0  0  0  0  0  0  0  0
    1.0730    1.2661   -1.3068 C   0  0  0  0  0  0  0  0  0  0  0  0
    1.3636    2.2434   -0.1521 C   0  0  2  0  0  0  0  0  0  0  0  0
    1.4724   -1.0036   -2.3014 C   0  0  0  0  0  0  0  0  0  0  0  0
    2.8484    2.3603    0.1264 C   0  0  0  0  0  0  0  0  0  0  0  0
    3.7333    1.4545   -0.3264 C   0  0  0  0  0  0  0  0  0  0  0  0
    4.1376   -0.9858   -0.5651 C   0  0  0  0  0  0  0  0  0  0  0  0
    0.5974    1.8454    1.1143 C   0  0  0  0  0  0  0  0  0  0  0  0
    1.3700   -0.2424   -3.6192 C   0  0  0  0  0  0  0  0  0  0  0  0
    0.1620   -1.7178   -1.9858 C   0  0  0  0  0  0  0  0  0  0  0  0
    3.2991    3.5683    0.8997 C   0  0  0  0  0  0  0  0  0  0  0  0
   -0.8800    1.7609    0.8580 C   0  0  0  0  0  0  0  0  0  0  0  0
    4.4920   -2.3776    1.3579 C   0  0  0  0  0  0  0  0  0  0  0  0
    3.8239   -3.6719    0.9024 C   0  0  0  0  0  0  0  0  0  0  0  0
    4.5318   -2.2876    2.8800 C   0  0  0  0  0  0  0  0  0  0  0  0
   -2.7233    0.8106    0.5187 C   0  0  0  0  0  0  0  0  0  0  0  0
   -3.5994   -0.3112    0.3430 C   0  0  0  0  0  0  0  0  0  0  0  0
   -4.9605   -0.1100    0.1136 C   0  0  0  0  0  0  0  0  0  0  0  0
   -3.0862   -1.6069    0.4025 C   0  0  0  0  0  0  0  0  0  0  0  0
   -5.8084   -1.2046   -0.0563 C   0  0  0  0  0  0  0  0  0  0  0  0
   -3.9341   -2.7014    0.2326 C   0  0  0  0  0  0  0  0  0  0  0  0
   -5.2952   -2.5002    0.0031 C   0  0  0  0  0  0  0  0  0  0  0  0
    1.5465   -0.5149   -0.2152 H   0  0  0  0  0  0  0  0  0  0  0  0
    3.7426    0.3997   -2.1403 H   0  0  0  0  0  0  0  0  0  0  0  0
    0.0002    1.0959   -1.4303 H   0  0  0  0  0  0  0  0  0  0  0  0
    1.3946    1.7934   -2.2155 H   0  0  0  0  0  0  0  0  0  0  0  0
    1.0006    3.2282   -0.4801 H   0  0  0  0  0  0  0  0  0  0  0  0
    2.2328   -1.7820   -2.4192 H   0  0  0  0  0  0  0  0  0  0  0  0
    4.7930    1.6153   -0.1371 H   0  0  0  0  0  0  0  0  0  0  0  0
    5.2157   -0.7878   -0.6406 H   0  0  0  0  0  0  0  0  0  0  0  0
    3.9445   -1.8641   -1.1862 H   0  0  0  0  0  0  0  0  0  0  0  0
    0.7518    2.5904    1.9043 H   0  0  0  0  0  0  0  0  0  0  0  0
    0.9566    0.8904    1.5164 H   0  0  0  0  0  0  0  0  0  0  0  0
    0.4795    0.3916   -3.6830 H   0  0  0  0  0  0  0  0  0  0  0  0
    1.2826   -0.9612   -4.4435 H   0  0  0  0  0  0  0  0  0  0  0  0
    2.2584    0.3605   -3.8291 H   0  0  0  0  0  0  0  0  0  0  0  0
   -0.6781   -1.0226   -1.8940 H   0  0  0  0  0  0  0  0  0  0  0  0
    0.2388   -2.2838   -1.0512 H   0  0  0  0  0  0  0  0  0  0  0  0
   -0.0868   -2.4294   -2.7809 H   0  0  0  0  0  0  0  0  0  0  0  0
    2.9622    4.4844    0.4038 H   0  0  0  0  0  0  0  0  0  0  0  0
    4.3900    3.6214    0.9822 H   0  0  0  0  0  0  0  0  0  0  0  0
    2.8935    3.5519    1.9156 H   0  0  0  0  0  0  0  0  0  0  0  0
    4.0018   -0.4001    1.3780 H   0  0  0  0  0  0  0  0  0  0  0  0
    5.5356   -2.3768    1.0169 H   0  0  0  0  0  0  0  0  0  0  0  0
    4.3122   -4.5375    1.3640 H   0  0  0  0  0  0  0  0  0  0  0  0
    3.8847   -3.8105   -0.1813 H   0  0  0  0  0  0  0  0  0  0  0  0
    2.7662   -3.6981    1.1887 H   0  0  0  0  0  0  0  0  0  0  0  0
    5.0705   -3.1419    3.3044 H   0  0  0  0  0  0  0  0  0  0  0  0
    5.0455   -1.3775    3.2098 H   0  0  0  0  0  0  0  0  0  0  0  0
    3.5232   -2.2816    3.3088 H   0  0  0  0  0  0  0  0  0  0  0  0
   -2.0322   -1.8050    0.5798 H   0  0  0  0  0  0  0  0  0  0  0  0
   -6.8681   -1.0478   -0.2349 H   0  0  0  0  0  0  0  0  0  0  0  0
   -3.5349   -3.7104    0.2786 H   0  0  0  0  0  0  0  0  0  0  0  0
   -5.9554   -3.3523   -0.1292 H   0  0  0  0  0  0  0  0  0  0  0  0
  1 24  1  0  0  0  0
  2 18  1  0  0  0  0
  2 22  1  0  0  0  0
  3 13  1  0  0  0  0
  3 19  1  0  0  0  0
  3 49  1  0  0  0  0
  4  5  1  0  0  0  0
  4 18  2  0  0  0  0
  5 22  2  0  0  0  0
  6  7  1  0  0  0  0
  6  8  1  0  0  0  0
  6 10  1  0  0  0  0
  6 29  1  0  0  0  0
  7 12  1  0  0  0  0
  7 13  1  0  0  0  0
  7 30  1  0  0  0  0
  8  9  1  0  0  0  0
  8 31  1  0  0  0  0
  8 32  1  0  0  0  0
  9 11  1  0  0  0  0
  9 14  1  0  0  0  0
  9 33  1  0  0  0  0
 10 15  1  0  0  0  0
 10 16  1  0  0  0  0
 10 34  1  0  0  0  0
 11 12  2  0  0  0  0
 11 17  1  0  0  0  0
 12 35  1  0  0  0  0
 13 36  1  0  0  0  0
 13 37  1  0  0  0  0
 14 18  1  0  0  0  0
 14 38  1  0  0  0  0
 14 39  1  0  0  0  0
 15 40  1  0  0  0  0
 15 41  1  0  0  0  0
 15 42  1  0  0  0  0
 16 43  1  0  0  0  0
 16 44  1  0  0  0  0
 16 45  1  0  0  0  0
 17 46  1  0  0  0  0
 17 47  1  0  0  0  0
 17 48  1  0  0  0  0
 19 20  1  0  0  0  0
 19 21  1  0  0  0  0
 19 50  1  0  0  0  0
 20 51  1  0  0  0  0
 20 52  1  0  0  0  0
 20 53  1  0  0  0  0
 21 54  1  0  0  0  0
 21 55  1  0  0  0  0
 21 56  1  0  0  0  0
 22 23  1  0  0  0  0
 23 24  1  0  0  0  0
 23 25  2  0  0  0  0
 24 26  2  0  0  0  0
 25 27  1  0  0  0  0
 25 57  1  0  0  0  0
 26 28  1  0  0  0  0
 26 58  1  0  0  0  0
 27 28  2  0  0  0  0
 27 59  1  0  0  0  0
 28 60  1  0  0  0  0
M  END
> <PUBCHEM_COMPOUND_CID>
38031028

> <PUBCHEM_CONFORMER_RMSD>
1

> <PUBCHEM_CONFORMER_DIVERSEORDER>
1
42
48
94
18
29
9
51
59
19
54
74
96
97
66
69
21
64
12
16
15
7
90
53
37
11
2
79
46
36
83
17
93
39
55
87
62
72
25
71
67
76
47
57
22
32
80
5
44
23
56
34
75
30
73
84
41
40
95
78
77
89
68
31
58
3
6
13
50
61
45
20
24
49
60
27
26
85
10
70
43
86
81
33
88
82
28
8
92
52
91
14
4
38
65
35
63

> <PUBCHEM_MMFF94_PARTIAL_CHARGES>
27
1 -0.19
11 -0.28
12 -0.29
13 0.27
14 0.18
17 0.14
18 0.3
19 0.27
2 -0.28
22 0.43
23 0.05
24 0.19
25 -0.15
26 -0.15
27 -0.15
28 -0.15
3 -0.9
35 0.15
4 -0.34
49 0.36
5 -0.34
57 0.15
58 0.15
59 0.15
60 0.15
7 0.14
9 0.14

> <PUBCHEM_EFFECTIVE_ROTOR_COUNT>
7.8

> <PUBCHEM_PHARMACOPHORE_FEATURES>
7
1 3 cation
1 3 donor
3 10 15 16 hydrophobe
3 19 20 21 hydrophobe
5 2 4 5 18 22 rings
6 23 24 25 26 27 28 rings
6 6 7 8 9 11 12 rings

> <PUBCHEM_HEAVY_ATOM_COUNT>
28

> <PUBCHEM_ATOM_DEF_STEREO_COUNT>
3

> <PUBCHEM_ATOM_UDEF_STEREO_COUNT>
0

> <PUBCHEM_BOND_DEF_STEREO_COUNT>
0

> <PUBCHEM_BOND_UDEF_STEREO_COUNT>
0

> <PUBCHEM_ISOTOPIC_ATOM_COUNT>
0

> <PUBCHEM_COMPONENT_COUNT>
1

> <PUBCHEM_CACTVS_TAUTO_COUNT>
1

> <PUBCHEM_CONFORMER_ID>
02444EB400000001

> <PUBCHEM_MMFF94_ENERGY>
45.5901

> <PUBCHEM_FEATURE_SELFOVERLAP>
35.522

> <PUBCHEM_SHAPE_FINGERPRINT>
11578080 2 17749656403909873996
11796584 16 18341620304149649581
12422481 6 17489581242931232591
12633257 1 18270975543909316305
13165053 137 13354380318304673395
13402501 40 18057896929582200895
13533116 47 18260829314932670451
14178342 30 17558283024465380448
14910302 57 18114169857329890693
18681886 176 17632026329328223204
1979834 28 16988852682775002455
20626108 58 18411702045822859616
21033648 29 16773228462574522354
21315764 119 17458056085006883823
21703447 108 18340481261680350640
21987440 362 16234755652396239101
23559900 14 17987253152509602927
239999 70 17987531470923188772
25222932 49 17979920737108423591
3004659 81 18411707594820086805
3680242 22 18339935826803665083
4073 2 18192155017258285689
439807 62 18261116322634555299
463206 1 18187088317016100107
484985 159 16888619841741901426
5104073 3 18272660073428126457
66674814 147 17313386678134657650
6823239 73 17702128913933648524
9709674 26 17916043299364732453

> <PUBCHEM_SHAPE_MULTIPOLES>
548.14
11.89
4.06
2.21
12.82
0.38
-1.52
7.18
3.86
-3.21
2.13
-3.03
1.15
-1.84

> <PUBCHEM_SHAPE_SELFOVERLAP>
1146.768

> <PUBCHEM_SHAPE_VOLUME>
313.7

> <PUBCHEM_COORDINATE_TYPE>
2
5
10

$$$$
