7113375
  -OEChem-12032416413D

 61 63  0     1  0  0  0  0  0999 V2000
   -3.0148   -3.9374   -0.3899 S   0  0  0  0  0  0  0  0  0  0  0  0
    0.0547    0.4111   -0.8858 O   0  0  0  0  0  0  0  0  0  0  0  0
   -2.1453   -1.5618    1.2378 O   0  0  0  0  0  0  0  0  0  0  0  0
    4.3489    0.9649    1.2251 O   0  0  0  0  0  0  0  0  0  0  0  0
    0.6050    4.1869    1.6679 O   0  0  0  0  0  0  0  0  0  0  0  0
    0.1036   -1.7593    0.7107 N   0  0  0  0  0  0  0  0  0  0  0  0
    2.7833   -0.6101    0.5433 N   0  0  0  0  0  0  0  0  0  0  0  0
   -0.4452    1.7491    0.9524 N   0  0  0  0  0  0  0  0  0  0  0  0
    4.7649   -0.2493   -0.6843 N   0  0  0  0  0  0  0  0  0  0  0  0
    0.3347    4.8685   -0.5090 N   0  0  0  0  0  0  0  0  0  0  0  0
   -4.7822    2.1432   -2.0075 N   0  0  0  0  0  0  0  0  0  0  0  0
    0.4170   -0.4594    1.3107 C   0  0  1  0  0  0  0  0  0  0  0  0
    1.8940   -0.3123    1.6699 C   0  0  0  0  0  0  0  0  0  0  0  0
    1.2335   -2.5307    0.1731 C   0  0  0  0  0  0  0  0  0  0  0  0
    2.3361   -1.6456   -0.3958 C   0  0  0  0  0  0  0  0  0  0  0  0
   -0.0106    0.5930    0.3271 C   0  0  0  0  0  0  0  0  0  0  0  0
   -1.2232   -2.2394    0.7795 C   0  0  0  0  0  0  0  0  0  0  0  0
    3.9942    0.0972    0.4215 C   0  0  0  0  0  0  0  0  0  0  0  0
   -0.8889    2.9195    0.2302 C   0  0  1  0  0  0  0  0  0  0  0  0
   -2.3235    3.3168    0.5960 C   0  0  0  0  0  0  0  0  0  0  0  0
   -1.4793   -3.5832    0.2713 C   0  0  0  0  0  0  0  0  0  0  0  0
    6.0334    0.3824   -0.9683 C   0  0  0  0  0  0  0  0  0  0  0  0
    0.0758    4.0467    0.5679 C   0  0  0  0  0  0  0  0  0  0  0  0
   -3.3599    2.4719   -0.1039 C   0  0  0  0  0  0  0  0  0  0  0  0
    6.9775   -0.5979   -1.6532 C   0  0  0  0  0  0  0  0  0  0  0  0
    5.8251    1.6312   -1.8152 C   0  0  0  0  0  0  0  0  0  0  0  0
   -0.6324   -4.6636    0.2404 C   0  0  0  0  0  0  0  0  0  0  0  0
   -1.2543   -5.8077   -0.3377 C   0  0  0  0  0  0  0  0  0  0  0  0
   -2.5514   -5.5517   -0.7241 C   0  0  0  0  0  0  0  0  0  0  0  0
   -3.8205    1.3111    0.4817 C   0  0  0  0  0  0  0  0  0  0  0  0
   -3.8533    2.8532   -1.3287 C   0  0  0  0  0  0  0  0  0  0  0  0
   -4.7763    0.5535   -0.1861 C   0  0  0  0  0  0  0  0  0  0  0  0
   -5.2207    1.0089   -1.4169 C   0  0  0  0  0  0  0  0  0  0  0  0
   -0.1830   -0.3594    2.2240 H   0  0  0  0  0  0  0  0  0  0  0  0
    2.1002    0.6931    2.0530 H   0  0  0  0  0  0  0  0  0  0  0  0
    2.1578   -1.0218    2.4640 H   0  0  0  0  0  0  0  0  0  0  0  0
    1.6425   -3.1296    0.9940 H   0  0  0  0  0  0  0  0  0  0  0  0
    0.9200   -3.1581   -0.6615 H   0  0  0  0  0  0  0  0  0  0  0  0
    2.0070   -1.1388   -1.3092 H   0  0  0  0  0  0  0  0  0  0  0  0
    3.1863   -2.2826   -0.6627 H   0  0  0  0  0  0  0  0  0  0  0  0
   -0.4153    1.8056    1.9665 H   0  0  0  0  0  0  0  0  0  0  0  0
   -0.8195    2.7156   -0.8457 H   0  0  0  0  0  0  0  0  0  0  0  0
    4.3829   -0.8554   -1.4005 H   0  0  0  0  0  0  0  0  0  0  0  0
   -2.5023    4.3690    0.3353 H   0  0  0  0  0  0  0  0  0  0  0  0
   -2.4757    3.2620    1.6826 H   0  0  0  0  0  0  0  0  0  0  0  0
    6.4882    0.6851   -0.0175 H   0  0  0  0  0  0  0  0  0  0  0  0
    7.1355   -1.4842   -1.0289 H   0  0  0  0  0  0  0  0  0  0  0  0
    7.9528   -0.1370   -1.8408 H   0  0  0  0  0  0  0  0  0  0  0  0
    6.5708   -0.9389   -2.6118 H   0  0  0  0  0  0  0  0  0  0  0  0
    5.1736    2.3484   -1.3040 H   0  0  0  0  0  0  0  0  0  0  0  0
    5.3549    1.3863   -2.7742 H   0  0  0  0  0  0  0  0  0  0  0  0
    6.7786    2.1289   -2.0200 H   0  0  0  0  0  0  0  0  0  0  0  0
    0.3495   -4.7352    0.6815 H   0  0  0  0  0  0  0  0  0  0  0  0
   -0.7828   -6.7761   -0.4429 H   0  0  0  0  0  0  0  0  0  0  0  0
   -3.4546    0.9833    1.4498 H   0  0  0  0  0  0  0  0  0  0  0  0
   -3.2512   -6.2371   -1.1812 H   0  0  0  0  0  0  0  0  0  0  0  0
   -3.5179    3.7569   -1.8268 H   0  0  0  0  0  0  0  0  0  0  0  0
   -0.1073    4.7401   -1.4136 H   0  0  0  0  0  0  0  0  0  0  0  0
    0.9745    5.6513   -0.4235 H   0  0  0  0  0  0  0  0  0  0  0  0
   -5.1607   -0.3646    0.2433 H   0  0  0  0  0  0  0  0  0  0  0  0
   -5.9652    0.4541   -1.9784 H   0  0  0  0  0  0  0  0  0  0  0  0
  1 21  1  0  0  0  0
  1 29  1  0  0  0  0
  2 16  2  0  0  0  0
  3 17  2  0  0  0  0
  4 18  2  0  0  0  0
  5 23  2  0  0  0  0
  6 12  1  0  0  0  0
  6 14  1  0  0  0  0
  6 17  1  0  0  0  0
  7 13  1  0  0  0  0
  7 15  1  0  0  0  0
  7 18  1  0  0  0  0
  8 16  1  0  0  0  0
  8 19  1  0  0  0  0
  8 41  1  0  0  0  0
  9 18  1  0  0  0  0
  9 22  1  0  0  0  0
  9 43  1  0  0  0  0
 10 23  1  0  0  0  0
 10 58  1  0  0  0  0
 10 59  1  0  0  0  0
 11 31  1  0  0  0  0
 11 33  2  0  0  0  0
 12 13  1  0  0  0  0
 12 16  1  0  0  0  0
 12 34  1  0  0  0  0
 13 35  1  0  0  0  0
 13 36  1  0  0  0  0
 14 15  1  0  0  0  0
 14 37  1  0  0  0  0
 14 38  1  0  0  0  0
 15 39  1  0  0  0  0
 15 40  1  0  0  0  0
 17 21  1  0  0  0  0
 19 20  1  0  0  0  0
 19 23  1  0  0  0  0
 19 42  1  0  0  0  0
 20 24  1  0  0  0  0
 20 44  1  0  0  0  0
 20 45  1  0  0  0  0
 21 27  2  0  0  0  0
 22 25  1  0  0  0  0
 22 26  1  0  0  0  0
 22 46  1  0  0  0  0
 24 30  1  0  0  0  0
 24 31  2  0  0  0  0
 25 47  1  0  0  0  0
 25 48  1  0  0  0  0
 25 49  1  0  0  0  0
 26 50  1  0  0  0  0
 26 51  1  0  0  0  0
 26 52  1  0  0  0  0
 27 28  1  0  0  0  0
 27 53  1  0  0  0  0
 28 29  2  0  0  0  0
 28 54  1  0  0  0  0
 29 56  1  0  0  0  0
 30 32  2  0  0  0  0
 30 55  1  0  0  0  0
 31 57  1  0  0  0  0
 32 33  1  0  0  0  0
 32 60  1  0  0  0  0
 33 61  1  0  0  0  0
M  END
> <PUBCHEM_COMPOUND_CID>
7113375

> <PUBCHEM_CONFORMER_RMSD>
1.2

> <PUBCHEM_CONFORMER_DIVERSEORDER>
1
36
38
6
8
20
39
34
12
30
40
18
28
4
29
33
22
19
41
21
16
9
23
35
3
27
17
14
15
10
26
7
2
11
31
5
13
37
25
32
24

> <PUBCHEM_MMFF94_PARTIAL_CHARGES>
42
1 -0.08
10 -0.8
11 -0.62
12 0.36
13 0.3
14 0.3
15 0.3
16 0.57
17 0.71
18 0.69
19 0.36
2 -0.57
20 0.14
21 -0.05
22 0.3
23 0.57
24 -0.14
27 -0.15
28 -0.15
29 -0.11
3 -0.57
30 -0.15
31 0.16
32 -0.15
33 0.16
4 -0.57
41 0.37
43 0.37
5 -0.57
53 0.15
54 0.15
55 0.15
56 0.15
57 0.15
58 0.37
59 0.37
6 -0.66
60 0.15
61 0.15
7 -0.66
8 -0.73
9 -0.73

> <PUBCHEM_EFFECTIVE_ROTOR_COUNT>
12.2

> <PUBCHEM_PHARMACOPHORE_FEATURES>
12
1 10 donor
1 11 acceptor
1 2 acceptor
1 3 acceptor
1 4 acceptor
1 5 acceptor
1 8 donor
1 9 donor
3 22 25 26 hydrophobe
5 1 21 27 28 29 rings
6 11 24 30 31 32 33 rings
6 6 7 12 13 14 15 rings

> <PUBCHEM_HEAVY_ATOM_COUNT>
33

> <PUBCHEM_ATOM_DEF_STEREO_COUNT>
2

> <PUBCHEM_ATOM_UDEF_STEREO_COUNT>
0

> <PUBCHEM_BOND_DEF_STEREO_COUNT>
0

> <PUBCHEM_BOND_UDEF_STEREO_COUNT>
0

> <PUBCHEM_ISOTOPIC_ATOM_COUNT>
0

> <PUBCHEM_COMPONENT_COUNT>
1

> <PUBCHEM_CACTVS_TAUTO_COUNT>
8

> <PUBCHEM_CONFORMER_ID>
006C8A9F00000001

> <PUBCHEM_MMFF94_ENERGY>
82.0554

> <PUBCHEM_FEATURE_SELFOVERLAP>
60.898

> <PUBCHEM_SHAPE_FINGERPRINT>
10010297 198 17550130068890217521
10074138 170 17476017719004430475
11513181 2 17904775384107658884
11991303 11 18333454235522386406
12788726 201 18268145370983533480
13690498 29 18192723464501014974
13911987 19 18336263436407751533
14114211 80 18270131119353536033
14251757 5 18337111262688133775
14556957 393 17755885330749386878
15297060 5 18197788704058837632
15705408 1 17114382001110108710
15876981 60 18118698831586889350
15950262 2 15793673545141900431
19958102 18 18268722610772956198
20101258 96 17974584789867050307
20775438 99 17984671628083217796
23559900 14 17402872446242430593
255183 451 17477492370288037935
4066623 53 17833264599240674383
4409770 3 18410022038983824979
5171179 24 18053664964628975784
5486654 2 18337953394100578205
6371009 1 18048307852516501138
6700243 42 17553531129174504974

> <PUBCHEM_SHAPE_MULTIPOLES>
629.61
11.16
8.1
1.5
16.87
6.84
0.24
-4.11
7.75
-9.11
0.44
0.56
-0.77
0.64

> <PUBCHEM_SHAPE_SELFOVERLAP>
1309.443

> <PUBCHEM_SHAPE_VOLUME>
358.7

> <PUBCHEM_COORDINATE_TYPE>
2
5
10

$$$$
