11883369
  -OEChem-12032416373D

 58 61  0     1  0  0  0  0  0999 V2000
   -8.1829   -3.1539   -1.2048 F   0  0  0  0  0  0  0  0  0  0  0  0
   -8.4806   -3.1747    0.9434 F   0  0  0  0  0  0  0  0  0  0  0  0
   -6.7691   -4.1979    0.0760 F   0  0  0  0  0  0  0  0  0  0  0  0
   -0.0972    1.9379    0.9568 O   0  0  0  0  0  0  0  0  0  0  0  0
   -0.5024    3.9770   -1.2975 O   0  0  0  0  0  0  0  0  0  0  0  0
    2.4030    2.1758   -0.2260 O   0  0  0  0  0  0  0  0  0  0  0  0
   -4.8190    2.7145    1.0189 O   0  0  0  0  0  0  0  0  0  0  0  0
    2.8919    0.3788   -1.5532 O   0  0  0  0  0  0  0  0  0  0  0  0
    6.2859   -2.9212   -1.7162 O   0  0  0  0  0  0  0  0  0  0  0  0
    8.2850   -0.8944    2.1152 O   0  0  0  0  0  0  0  0  0  0  0  0
   -3.0481    1.6563   -0.0408 N   0  0  0  0  0  0  0  0  0  0  0  0
    4.2437    0.9684    0.2648 N   0  0  0  0  0  0  0  0  0  0  0  0
   -1.0865    2.6778   -1.0673 C   0  0  1  0  0  0  0  0  0  0  0  0
    0.0008    1.8066   -0.4712 C   0  0  1  0  0  0  0  0  0  0  0  0
   -2.1243    2.7621    0.0277 C   0  0  2  0  0  0  0  0  0  0  0  0
    1.2602    2.4445   -1.0066 C   0  0  1  0  0  0  0  0  0  0  0  0
   -1.2731    2.6942    1.2840 C   0  0  0  0  0  0  0  0  0  0  0  0
    0.9006    3.9132   -1.0025 C   0  0  0  0  0  0  0  0  0  0  0  0
   -4.3371    1.7279    0.4686 C   0  0  0  0  0  0  0  0  0  0  0  0
    3.1700    1.0905   -0.5959 C   0  0  0  0  0  0  0  0  0  0  0  0
   -5.1556    0.4945    0.3433 C   0  0  0  0  0  0  0  0  0  0  0  0
   -6.1796    0.2417    1.2562 C   0  0  0  0  0  0  0  0  0  0  0  0
   -4.9005   -0.4107   -0.6869 C   0  0  0  0  0  0  0  0  0  0  0  0
    5.2699   -0.0034    0.2437 C   0  0  0  0  0  0  0  0  0  0  0  0
   -6.9481   -0.9164    1.1391 C   0  0  0  0  0  0  0  0  0  0  0  0
   -5.6690   -1.5688   -0.8040 C   0  0  0  0  0  0  0  0  0  0  0  0
   -6.6928   -1.8216    0.1090 C   0  0  0  0  0  0  0  0  0  0  0  0
    6.2825    0.0305    1.2024 C   0  0  0  0  0  0  0  0  0  0  0  0
    5.2707   -0.9956   -0.7366 C   0  0  0  0  0  0  0  0  0  0  0  0
   -7.5156   -3.0588   -0.0166 C   0  0  0  0  0  0  0  0  0  0  0  0
    6.2840   -1.9538   -0.7584 C   0  0  0  0  0  0  0  0  0  0  0  0
    7.2959   -0.9278    1.1807 C   0  0  0  0  0  0  0  0  0  0  0  0
    7.2966   -1.9199    0.2002 C   0  0  0  0  0  0  0  0  0  0  0  0
    7.3516   -3.8690   -1.6796 C   0  0  0  0  0  0  0  0  0  0  0  0
    9.2893   -1.9045    2.0340 C   0  0  0  0  0  0  0  0  0  0  0  0
   -1.4634    2.3079   -2.0261 H   0  0  0  0  0  0  0  0  0  0  0  0
   -0.0917    0.7443   -0.7146 H   0  0  0  0  0  0  0  0  0  0  0  0
   -2.6926    3.6982    0.0045 H   0  0  0  0  0  0  0  0  0  0  0  0
    1.4023    2.1474   -2.0549 H   0  0  0  0  0  0  0  0  0  0  0  0
   -1.7763    2.2287    2.1369 H   0  0  0  0  0  0  0  0  0  0  0  0
   -0.9400    3.6936    1.5848 H   0  0  0  0  0  0  0  0  0  0  0  0
    1.4597    4.4808   -1.7525 H   0  0  0  0  0  0  0  0  0  0  0  0
    1.0793    4.3828   -0.0287 H   0  0  0  0  0  0  0  0  0  0  0  0
   -2.6856    0.7731   -0.3847 H   0  0  0  0  0  0  0  0  0  0  0  0
    4.3063    1.6615    1.0065 H   0  0  0  0  0  0  0  0  0  0  0  0
   -6.3909    0.9324    2.0682 H   0  0  0  0  0  0  0  0  0  0  0  0
   -4.1338   -0.2368   -1.4360 H   0  0  0  0  0  0  0  0  0  0  0  0
   -7.7406   -1.0964    1.8602 H   0  0  0  0  0  0  0  0  0  0  0  0
   -5.4676   -2.2651   -1.6138 H   0  0  0  0  0  0  0  0  0  0  0  0
    6.2887    0.8013    1.9696 H   0  0  0  0  0  0  0  0  0  0  0  0
    4.5176   -1.0793   -1.5083 H   0  0  0  0  0  0  0  0  0  0  0  0
    8.0812   -2.6615    0.1830 H   0  0  0  0  0  0  0  0  0  0  0  0
    8.3232   -3.3919   -1.8477 H   0  0  0  0  0  0  0  0  0  0  0  0
    7.3301   -4.4668   -0.7621 H   0  0  0  0  0  0  0  0  0  0  0  0
    7.1926   -4.5627   -2.5119 H   0  0  0  0  0  0  0  0  0  0  0  0
    8.8710   -2.9046    2.1912 H   0  0  0  0  0  0  0  0  0  0  0  0
    9.8634   -1.8304    1.1039 H   0  0  0  0  0  0  0  0  0  0  0  0
    9.9926   -1.7242    2.8540 H   0  0  0  0  0  0  0  0  0  0  0  0
  1 30  1  0  0  0  0
  2 30  1  0  0  0  0
  3 30  1  0  0  0  0
  4 14  1  0  0  0  0
  4 17  1  0  0  0  0
  5 13  1  0  0  0  0
  5 18  1  0  0  0  0
  6 16  1  0  0  0  0
  6 20  1  0  0  0  0
  7 19  2  0  0  0  0
  8 20  2  0  0  0  0
  9 31  1  0  0  0  0
  9 34  1  0  0  0  0
 10 32  1  0  0  0  0
 10 35  1  0  0  0  0
 11 15  1  0  0  0  0
 11 19  1  0  0  0  0
 11 44  1  0  0  0  0
 12 20  1  0  0  0  0
 12 24  1  0  0  0  0
 12 45  1  0  0  0  0
 13 14  1  0  0  0  0
 13 15  1  0  0  0  0
 13 36  1  0  0  0  0
 14 16  1  0  0  0  0
 14 37  1  0  0  0  0
 15 17  1  0  0  0  0
 15 38  1  0  0  0  0
 16 18  1  0  0  0  0
 16 39  1  0  0  0  0
 17 40  1  0  0  0  0
 17 41  1  0  0  0  0
 18 42  1  0  0  0  0
 18 43  1  0  0  0  0
 19 21  1  0  0  0  0
 21 22  2  0  0  0  0
 21 23  1  0  0  0  0
 22 25  1  0  0  0  0
 22 46  1  0  0  0  0
 23 26  2  0  0  0  0
 23 47  1  0  0  0  0
 24 28  2  0  0  0  0
 24 29  1  0  0  0  0
 25 27  2  0  0  0  0
 25 48  1  0  0  0  0
 26 27  1  0  0  0  0
 26 49  1  0  0  0  0
 27 30  1  0  0  0  0
 28 32  1  0  0  0  0
 28 50  1  0  0  0  0
 29 31  2  0  0  0  0
 29 51  1  0  0  0  0
 31 33  1  0  0  0  0
 32 33  2  0  0  0  0
 33 52  1  0  0  0  0
 34 53  1  0  0  0  0
 34 54  1  0  0  0  0
 34 55  1  0  0  0  0
 35 56  1  0  0  0  0
 35 57  1  0  0  0  0
 35 58  1  0  0  0  0
M  END
> <PUBCHEM_COMPOUND_CID>
11883369

> <PUBCHEM_CONFORMER_RMSD>
1.2

> <PUBCHEM_CONFORMER_DIVERSEORDER>
1
17
5
19
13
23
25
21
31
32
40
22
26
20
29
36
15
28
41
2
38
27
34
35
6
4
16
39
10
9
18
7
12
8
11
24
33
30
14
3
37

> <PUBCHEM_MMFF94_PARTIAL_CHARGES>
44
1 -0.34
10 -0.36
11 -0.73
12 -0.55
13 0.28
14 0.28
15 0.3
16 0.28
17 0.28
18 0.28
19 0.54
2 -0.34
20 0.78
21 0.09
22 -0.15
23 -0.15
24 0.12
25 -0.15
26 -0.15
27 -0.14
28 -0.15
29 -0.15
3 -0.34
30 1.16
31 0.08
32 0.08
33 -0.15
34 0.28
35 0.28
4 -0.56
44 0.37
45 0.37
46 0.15
47 0.15
48 0.15
49 0.15
5 -0.56
50 0.15
51 0.15
52 0.15
6 -0.43
7 -0.57
8 -0.57
9 -0.36

> <PUBCHEM_EFFECTIVE_ROTOR_COUNT>
11.2

> <PUBCHEM_PHARMACOPHORE_FEATURES>
12
1 10 acceptor
1 11 donor
1 12 donor
1 4 acceptor
1 5 acceptor
1 7 acceptor
1 8 acceptor
1 9 acceptor
5 4 13 14 15 17 rings
5 5 13 14 16 18 rings
6 21 22 23 25 26 27 rings
6 24 28 29 31 32 33 rings

> <PUBCHEM_HEAVY_ATOM_COUNT>
35

> <PUBCHEM_ATOM_DEF_STEREO_COUNT>
4

> <PUBCHEM_ATOM_UDEF_STEREO_COUNT>
0

> <PUBCHEM_BOND_DEF_STEREO_COUNT>
0

> <PUBCHEM_BOND_UDEF_STEREO_COUNT>
0

> <PUBCHEM_ISOTOPIC_ATOM_COUNT>
0

> <PUBCHEM_COMPONENT_COUNT>
1

> <PUBCHEM_CACTVS_TAUTO_COUNT>
4

> <PUBCHEM_CONFORMER_ID>
00B5536900000001

> <PUBCHEM_MMFF94_ENERGY>
113.2936

> <PUBCHEM_FEATURE_SELFOVERLAP>
61.617

> <PUBCHEM_SHAPE_FINGERPRINT>
10100884 174 18333446565053811122
10190206 1 12107778575768899375
10258705 36 18056206765832321030
10391435 84 18340478972135383012
10669705 251 18343306942323835374
11103572 95 18058173834481749331
11497681 19 18409456869313254668
117089 54 18337400426062765363
11963148 33 18189053088845820122
12120059 9 18339907247669069901
1361 4 18265057010319118525
13782708 43 18411136901252173216
13944108 23 9114602841505491755
14201967 108 18335424620663613267
14344974 204 18409729534631389686
14359421 15 17749379391562595651
14664723 55 11891325435918625063
15131766 46 9799142786531994777
15145343 39 18261673800340816426
15152005 304 18337685199195064371
15347591 1 18410857685497520301
15510800 12 18261969495526573283
16067689 68 18059310755538262435
16992779 147 16700871961000092536
19303781 99 18337943597601748135
19304671 126 7853588923369202168
19841028 212 18262236728655266321
2026 5 18186516605693599691
20691028 202 10159691391825947570
208703 8 18408880772190080871
21033648 29 14188760484648038865
21130935 74 18272092660903567648
212700 22 18413102862365581631
21424621 283 9943518609660098564
21585481 151 18270973340570052838
21585483 132 18041268937325021299
21792938 703 17896322591636326929
21987483 16 18262513810297353480
22002106 203 18337381738079740723
23569914 152 11675975045953970680
23569943 247 18264492953187879875
24204213 310 16770959293998308303
24983565 74 18117269251734121554
25025965 108 17678162807918389282
25242607 90 18409443704462545112
3383291 50 18335422369725723251
3504750 166 18340776957948009729
3711267 37 12247382550031867834
393628 194 10951758699208971763
397830 11 18201996582983406256
3986486 107 10953459605617149434
406291 66 18334293188663735043
474113 269 18201151166358623047
4760202 70 18113625616939988636
50009960 94 18269833272041056375
50742298 180 18337672022219478630
5718773 13 18408603686474897813
5874358 3 18113327618321639882
636775 72 9150299014360386302
96874 4 18334292080414200201
9962374 69 18113903754510708352

> <PUBCHEM_SHAPE_MULTIPOLES>
647.42
30.29
5.39
1.6
11.01
0.88
-0.21
43.22
-8.98
-5.69
1.88
2.7
0.42
0.15

> <PUBCHEM_SHAPE_SELFOVERLAP>
1400.828

> <PUBCHEM_SHAPE_VOLUME>
356.8

> <PUBCHEM_COORDINATE_TYPE>
2
5
10

$$$$
