45783447
  -OEChem-12032416263D

 57 60  0     1  0  0  0  0  0999 V2000
   -1.4024    2.8925   -0.6119 O   0  0  0  0  0  0  0  0  0  0  0  0
    4.1226   -1.2970   -0.3019 O   0  0  0  0  0  0  0  0  0  0  0  0
    5.3664   -1.5274    2.1975 O   0  0  0  0  0  0  0  0  0  0  0  0
   -2.9499    0.2253    1.3875 N   0  0  1  0  0  0  0  0  0  0  0  0
   -3.7205   -2.7248   -1.5734 N   0  0  0  0  0  0  0  0  0  0  0  0
   -0.3484    1.0950    0.2097 N   0  0  0  0  0  0  0  0  0  0  0  0
   -0.1510    2.8539   -1.2397 N   0  0  0  0  0  0  0  0  0  0  0  0
    2.3735    2.0815   -1.9741 N   0  0  0  0  0  0  0  0  0  0  0  0
   -3.6565   -0.5166    0.3458 C   0  0  0  0  0  0  0  0  0  0  0  0
   -2.7045    1.6372    1.0320 C   0  0  1  0  0  0  0  0  0  0  0  0
   -3.6883    0.2393    2.6504 C   0  0  0  0  0  0  0  0  0  0  0  0
   -3.8657   -1.9697    0.7793 C   0  0  0  0  0  0  0  0  0  0  0  0
   -2.8863   -0.4720   -0.9772 C   0  0  0  0  0  0  0  0  0  0  0  0
   -2.6646    2.3790    2.3808 C   0  0  0  0  0  0  0  0  0  0  0  0
   -2.9578    1.3147    3.4288 C   0  0  0  0  0  0  0  0  0  0  0  0
   -4.5161   -2.7878   -0.3394 C   0  0  0  0  0  0  0  0  0  0  0  0
   -3.5683   -1.3392   -2.0385 C   0  0  0  0  0  0  0  0  0  0  0  0
   -1.4366    1.8226    0.2251 C   0  0  0  0  0  0  0  0  0  0  0  0
   -4.3275   -3.5511   -2.6165 C   0  0  0  0  0  0  0  0  0  0  0  0
    0.4112    1.7667   -0.7034 C   0  0  0  0  0  0  0  0  0  0  0  0
    1.7294    1.3255   -1.0568 C   0  0  0  0  0  0  0  0  0  0  0  0
    2.2680    0.1915   -0.4702 C   0  0  0  0  0  0  0  0  0  0  0  0
    3.5498   -0.1913   -0.8494 C   0  0  0  0  0  0  0  0  0  0  0  0
    3.6174    1.6785   -2.3178 C   0  0  0  0  0  0  0  0  0  0  0  0
    4.2442    0.5610   -1.7903 C   0  0  0  0  0  0  0  0  0  0  0  0
    5.5446   -1.2989   -0.1789 C   0  0  0  0  0  0  0  0  0  0  0  0
    5.9350   -2.1190    1.0355 C   0  0  0  0  0  0  0  0  0  0  0  0
    5.6824   -2.2693    3.3672 C   0  0  0  0  0  0  0  0  0  0  0  0
   -4.6456   -0.0662    0.1762 H   0  0  0  0  0  0  0  0  0  0  0  0
   -3.5488    2.0442    0.4572 H   0  0  0  0  0  0  0  0  0  0  0  0
   -3.6356   -0.7113    3.1895 H   0  0  0  0  0  0  0  0  0  0  0  0
   -4.7401    0.5202    2.5122 H   0  0  0  0  0  0  0  0  0  0  0  0
   -4.5191   -2.0374    1.6564 H   0  0  0  0  0  0  0  0  0  0  0  0
   -2.9063   -2.4288    1.0540 H   0  0  0  0  0  0  0  0  0  0  0  0
   -2.8513    0.5386   -1.3943 H   0  0  0  0  0  0  0  0  0  0  0  0
   -1.8583   -0.8314   -0.8418 H   0  0  0  0  0  0  0  0  0  0  0  0
   -1.7090    2.8738    2.5857 H   0  0  0  0  0  0  0  0  0  0  0  0
   -3.4509    3.1434    2.4047 H   0  0  0  0  0  0  0  0  0  0  0  0
   -2.0168    0.9224    3.8343 H   0  0  0  0  0  0  0  0  0  0  0  0
   -3.5499    1.7063    4.2611 H   0  0  0  0  0  0  0  0  0  0  0  0
   -4.5919   -3.8284   -0.0009 H   0  0  0  0  0  0  0  0  0  0  0  0
   -5.5383   -2.4267   -0.5141 H   0  0  0  0  0  0  0  0  0  0  0  0
   -4.5430   -0.9055   -2.2991 H   0  0  0  0  0  0  0  0  0  0  0  0
   -2.9505   -1.3187   -2.9448 H   0  0  0  0  0  0  0  0  0  0  0  0
   -4.3952   -4.5948   -2.2900 H   0  0  0  0  0  0  0  0  0  0  0  0
   -5.3332   -3.2074   -2.8844 H   0  0  0  0  0  0  0  0  0  0  0  0
   -3.7087   -3.5455   -3.5207 H   0  0  0  0  0  0  0  0  0  0  0  0
    1.7270   -0.3968    0.2646 H   0  0  0  0  0  0  0  0  0  0  0  0
    4.1132    2.2954   -3.0601 H   0  0  0  0  0  0  0  0  0  0  0  0
    5.2340    0.3001   -2.1470 H   0  0  0  0  0  0  0  0  0  0  0  0
    5.9304   -0.2827   -0.0256 H   0  0  0  0  0  0  0  0  0  0  0  0
    5.9851   -1.7320   -1.0833 H   0  0  0  0  0  0  0  0  0  0  0  0
    5.5482   -3.1394    0.9319 H   0  0  0  0  0  0  0  0  0  0  0  0
    7.0259   -2.1527    1.1306 H   0  0  0  0  0  0  0  0  0  0  0  0
    5.2784   -3.2841    3.2991 H   0  0  0  0  0  0  0  0  0  0  0  0
    6.7656   -2.3039    3.5189 H   0  0  0  0  0  0  0  0  0  0  0  0
    5.2258   -1.7695    4.2256 H   0  0  0  0  0  0  0  0  0  0  0  0
  1  7  1  0  0  0  0
  1 18  1  0  0  0  0
  2 23  1  0  0  0  0
  2 26  1  0  0  0  0
  3 27  1  0  0  0  0
  3 28  1  0  0  0  0
  4  9  1  0  0  0  0
  4 10  1  0  0  0  0
  4 11  1  0  0  0  0
  5 16  1  0  0  0  0
  5 17  1  0  0  0  0
  5 19  1  0  0  0  0
  6 18  2  0  0  0  0
  6 20  1  0  0  0  0
  7 20  2  0  0  0  0
  8 21  2  0  0  0  0
  8 24  1  0  0  0  0
  9 12  1  0  0  0  0
  9 13  1  0  0  0  0
  9 29  1  0  0  0  0
 10 14  1  0  0  0  0
 10 18  1  0  0  0  0
 10 30  1  0  0  0  0
 11 15  1  0  0  0  0
 11 31  1  0  0  0  0
 11 32  1  0  0  0  0
 12 16  1  0  0  0  0
 12 33  1  0  0  0  0
 12 34  1  0  0  0  0
 13 17  1  0  0  0  0
 13 35  1  0  0  0  0
 13 36  1  0  0  0  0
 14 15  1  0  0  0  0
 14 37  1  0  0  0  0
 14 38  1  0  0  0  0
 15 39  1  0  0  0  0
 15 40  1  0  0  0  0
 16 41  1  0  0  0  0
 16 42  1  0  0  0  0
 17 43  1  0  0  0  0
 17 44  1  0  0  0  0
 19 45  1  0  0  0  0
 19 46  1  0  0  0  0
 19 47  1  0  0  0  0
 20 21  1  0  0  0  0
 21 22  1  0  0  0  0
 22 23  2  0  0  0  0
 22 48  1  0  0  0  0
 23 25  1  0  0  0  0
 24 25  2  0  0  0  0
 24 49  1  0  0  0  0
 25 50  1  0  0  0  0
 26 27  1  0  0  0  0
 26 51  1  0  0  0  0
 26 52  1  0  0  0  0
 27 53  1  0  0  0  0
 27 54  1  0  0  0  0
 28 55  1  0  0  0  0
 28 56  1  0  0  0  0
 28 57  1  0  0  0  0
M  END
> <PUBCHEM_COMPOUND_CID>
45783447

> <PUBCHEM_CONFORMER_RMSD>
1

> <PUBCHEM_CONFORMER_DIVERSEORDER>
2
13
40
97
14
78
46
91
62
90
30
29
82
12
41
76
58
36
32
19
57
93
73
65
52
88
1
67
34
37
21
25
69
15
59
96
92
86
43
83
60
9
11
33
80
72
31
89
84
95
17
20
64
50
5
75
77
85
4
8
56
45
68
38
55
16
63
24
10
71
54
49
61
87
74
51
66
53
70
28
48
23
26
27
3
79
35
18
7
81
39
42
44
22
94
6
47

> <PUBCHEM_MMFF94_PARTIAL_CHARGES>
27
1 -0.02
10 0.45
11 0.27
16 0.27
17 0.27
18 0.3
19 0.27
2 -0.36
20 0.46
21 0.36
22 -0.15
23 0.08
24 0.16
25 -0.15
26 0.28
27 0.28
28 0.28
3 -0.56
4 -0.81
48 0.15
49 0.15
5 -0.81
50 0.15
6 -0.57
7 -0.41
8 -0.62
9 0.27

> <PUBCHEM_EFFECTIVE_ROTOR_COUNT>
9.2

> <PUBCHEM_PHARMACOPHORE_FEATURES>
10
1 2 acceptor
1 3 acceptor
1 4 cation
1 5 cation
1 8 acceptor
3 6 7 20 cation
5 1 6 7 18 20 rings
5 4 10 11 14 15 rings
6 5 9 12 13 16 17 rings
6 8 21 22 23 24 25 rings

> <PUBCHEM_HEAVY_ATOM_COUNT>
28

> <PUBCHEM_ATOM_DEF_STEREO_COUNT>
1

> <PUBCHEM_ATOM_UDEF_STEREO_COUNT>
0

> <PUBCHEM_BOND_DEF_STEREO_COUNT>
0

> <PUBCHEM_BOND_UDEF_STEREO_COUNT>
0

> <PUBCHEM_ISOTOPIC_ATOM_COUNT>
0

> <PUBCHEM_COMPONENT_COUNT>
1

> <PUBCHEM_CACTVS_TAUTO_COUNT>
1

> <PUBCHEM_CONFORMER_ID>
02BA999700000002

> <PUBCHEM_MMFF94_ENERGY>
55.3916

> <PUBCHEM_FEATURE_SELFOVERLAP>
50.752

> <PUBCHEM_SHAPE_FINGERPRINT>
10462674 125 15265339704753870127
10622 236 18337952397726344055
11135926 11 17460057256298751444
11552529 35 17703528643733398253
11578080 2 18271524316614582769
12422481 6 18125731088936294086
12523318 42 17775569706441976683
12559416 138 18113341890825921770
12788726 201 17485120657997228773
12977781 61 17978749619617070764
13004483 165 17416978403570342153
13383661 66 16450975116404029259
13583140 156 15194739899999656348
14428016 347 17751060437229918546
14508693 111 18057887050867873998
15537594 2 18119843336965263540
16728300 4 18267610012575417651
19032999 76 18272075141135913671
19315092 285 18269259305280002720
19377110 9 18341904034443464364
20554085 129 17128194736810223025
20775530 9 17912936268604439823
21033648 29 15553903073825524993
21585480 29 18117255027345139170
22393880 68 14851607682979522376
235170 7 15213881439577055172
312425 83 13190638126339951242
314194 84 17821739304142340528
3459 110 16056584487207871362
345986 75 17987242320918664687
3882209 13 15289254950922257202
46194498 28 14636305787083924734
6431902 208 17313673633932262154
86090 222 15100989427025608287

> <PUBCHEM_SHAPE_MULTIPOLES>
533.71
13.44
3.85
3.4
16.39
1.6
-2.5
12.09
-6.07
-5.04
0.8
2.47
-0.15
-6.61

> <PUBCHEM_SHAPE_SELFOVERLAP>
1125.368

> <PUBCHEM_SHAPE_VOLUME>
301.5

> <PUBCHEM_COORDINATE_TYPE>
2
5
10

$$$$
