25390146
  -OEChem-12032416373D

 51 54  0     1  0  0  0  0  0999 V2000
   -7.9728   -0.0064    1.1731 F   0  0  0  0  0  0  0  0  0  0  0  0
   -6.0645   -0.7641    1.9217 F   0  0  0  0  0  0  0  0  0  0  0  0
   -6.4365    1.4116    1.8093 F   0  0  0  0  0  0  0  0  0  0  0  0
    3.0358   -1.0724    1.2303 O   0  0  0  0  0  0  0  0  0  0  0  0
    5.3004   -3.0350    0.7069 O   0  0  0  0  0  0  0  0  0  0  0  0
    6.5910   -0.6219    0.9891 O   0  0  0  0  0  0  0  0  0  0  0  0
    0.7553   -2.7244   -1.5717 O   0  0  0  0  0  0  0  0  0  0  0  0
    1.2688    1.3303    1.5302 O   0  0  0  0  0  0  0  0  0  0  0  0
    2.7623    3.2689   -1.0354 O   0  0  0  0  0  0  0  0  0  0  0  0
   -6.1480    0.2380   -0.1326 O   0  0  0  0  0  0  0  0  0  0  0  0
    3.5139    1.7222    1.0948 N   0  0  0  0  0  0  0  0  0  0  0  0
    0.1529   -0.7063   -0.8095 N   0  0  0  0  0  0  0  0  0  0  0  0
   -0.6436   -2.7361   -1.5018 N   0  0  0  0  0  0  0  0  0  0  0  0
    4.8260   -1.9390   -0.0744 C   0  0  2  0  0  0  0  0  0  0  0  0
    5.2491   -0.6258    0.5508 C   0  0  1  0  0  0  0  0  0  0  0  0
    3.3086   -1.8817    0.0634 C   0  0  2  0  0  0  0  0  0  0  0  0
    4.2708   -0.5100    1.7076 C   0  0  1  0  0  0  0  0  0  0  0  0
    2.6260   -1.2253   -1.1288 C   0  0  0  0  0  0  0  0  0  0  0  0
    4.0400    0.9208    2.1599 C   0  0  0  0  0  0  0  0  0  0  0  0
    1.1430   -1.4936   -1.1465 C   0  0  0  0  0  0  0  0  0  0  0  0
    2.1488    1.8655    0.8610 C   0  0  0  0  0  0  0  0  0  0  0  0
   -0.9231   -1.5121   -1.0443 C   0  0  0  0  0  0  0  0  0  0  0  0
    1.7656    2.7099   -0.2996 C   0  0  0  0  0  0  0  0  0  0  0  0
   -2.2653   -1.0639   -0.8097 C   0  0  0  0  0  0  0  0  0  0  0  0
    0.5359    3.0580   -0.8083 C   0  0  0  0  0  0  0  0  0  0  0  0
   -3.3355   -1.7113   -1.4273 C   0  0  0  0  0  0  0  0  0  0  0  0
   -2.5001    0.0208    0.0352 C   0  0  0  0  0  0  0  0  0  0  0  0
    0.7934    3.8835   -1.9286 C   0  0  0  0  0  0  0  0  0  0  0  0
    2.1622    3.9813   -2.0246 C   0  0  0  0  0  0  0  0  0  0  0  0
   -4.6402   -1.2740   -1.2001 C   0  0  0  0  0  0  0  0  0  0  0  0
   -3.8049    0.4583    0.2625 C   0  0  0  0  0  0  0  0  0  0  0  0
   -4.8750   -0.1890   -0.3552 C   0  0  0  0  0  0  0  0  0  0  0  0
   -6.6402    0.2230    1.2027 C   0  0  0  0  0  0  0  0  0  0  0  0
    5.1934   -2.0731   -1.0957 H   0  0  0  0  0  0  0  0  0  0  0  0
    5.1195    0.1791   -0.1809 H   0  0  0  0  0  0  0  0  0  0  0  0
    2.8894   -2.8771    0.2530 H   0  0  0  0  0  0  0  0  0  0  0  0
    4.6061   -1.1035    2.5673 H   0  0  0  0  0  0  0  0  0  0  0  0
    3.0402   -1.6210   -2.0642 H   0  0  0  0  0  0  0  0  0  0  0  0
    2.7823   -0.1422   -1.1362 H   0  0  0  0  0  0  0  0  0  0  0  0
    4.9748    1.3808    2.4956 H   0  0  0  0  0  0  0  0  0  0  0  0
    3.3277    0.9377    2.9922 H   0  0  0  0  0  0  0  0  0  0  0  0
    4.9788   -3.8515    0.2876 H   0  0  0  0  0  0  0  0  0  0  0  0
    7.1498   -0.8265    0.2201 H   0  0  0  0  0  0  0  0  0  0  0  0
    4.1700    2.2042    0.4867 H   0  0  0  0  0  0  0  0  0  0  0  0
   -0.4281    2.7569   -0.4240 H   0  0  0  0  0  0  0  0  0  0  0  0
   -3.1864   -2.5553   -2.0964 H   0  0  0  0  0  0  0  0  0  0  0  0
   -1.6854    0.5410    0.5328 H   0  0  0  0  0  0  0  0  0  0  0  0
    0.0718    4.3489   -2.5843 H   0  0  0  0  0  0  0  0  0  0  0  0
    2.8294    4.4918   -2.7035 H   0  0  0  0  0  0  0  0  0  0  0  0
   -5.4702   -1.7812   -1.6845 H   0  0  0  0  0  0  0  0  0  0  0  0
   -3.9730    1.3081    0.9183 H   0  0  0  0  0  0  0  0  0  0  0  0
  1 33  1  0  0  0  0
  2 33  1  0  0  0  0
  3 33  1  0  0  0  0
  4 16  1  0  0  0  0
  4 17  1  0  0  0  0
  5 14  1  0  0  0  0
  5 42  1  0  0  0  0
  6 15  1  0  0  0  0
  6 43  1  0  0  0  0
  7 13  1  0  0  0  0
  7 20  1  0  0  0  0
  8 21  2  0  0  0  0
  9 23  1  0  0  0  0
  9 29  1  0  0  0  0
 10 32  1  0  0  0  0
 10 33  1  0  0  0  0
 11 19  1  0  0  0  0
 11 21  1  0  0  0  0
 11 44  1  0  0  0  0
 12 20  2  0  0  0  0
 12 22  1  0  0  0  0
 13 22  2  0  0  0  0
 14 15  1  0  0  0  0
 14 16  1  0  0  0  0
 14 34  1  0  0  0  0
 15 17  1  0  0  0  0
 15 35  1  0  0  0  0
 16 18  1  0  0  0  0
 16 36  1  0  0  0  0
 17 19  1  0  0  0  0
 17 37  1  0  0  0  0
 18 20  1  0  0  0  0
 18 38  1  0  0  0  0
 18 39  1  0  0  0  0
 19 40  1  0  0  0  0
 19 41  1  0  0  0  0
 21 23  1  0  0  0  0
 22 24  1  0  0  0  0
 23 25  2  0  0  0  0
 24 26  2  0  0  0  0
 24 27  1  0  0  0  0
 25 28  1  0  0  0  0
 25 45  1  0  0  0  0
 26 30  1  0  0  0  0
 26 46  1  0  0  0  0
 27 31  2  0  0  0  0
 27 47  1  0  0  0  0
 28 29  2  0  0  0  0
 28 48  1  0  0  0  0
 29 49  1  0  0  0  0
 30 32  2  0  0  0  0
 30 50  1  0  0  0  0
 31 32  1  0  0  0  0
 31 51  1  0  0  0  0
M  END
> <PUBCHEM_COMPOUND_CID>
25390146

> <PUBCHEM_CONFORMER_RMSD>
1

> <PUBCHEM_CONFORMER_DIVERSEORDER>
8
176
47
49
156
18
5
170
7
139
120
64
117
71
103
20
3
192
87
182
111
187
48
157
46
167
142
108
166
110
92
112
195
16
171
122
2
154
58
161
179
104
138
135
127
177
128
41
33
32
77
125
35
184
17
61
11
162
114
39
91
159
168
90
115
202
80
169
181
56
34
38
51
73
152
43
118
123
173
201
126
97
50
141
199
198
93
62
67
109
81
95
14
129
29
84
107
183
164
180
42
163
105
121
23
37
15
19
189
149
165
45
66
134
143
36
196
136
186
140
119
52
70
191
148
79
13
69
57
75
194
172
82
131
78
147
68
83
158
145
1
116
178
54
88
174
150
44
89
63
85
27
133
30
9
31
151
132
200
185
155
193
99
101
197
53
76
203
12
74
59
96
146
137
86
26
100
28
94
113
4
24
153
102
25
55
188
65
40
22
190
130
60
106
98
175
72
10
21
160
144
6
124

> <PUBCHEM_MMFF94_PARTIAL_CHARGES>
43
1 -0.34
10 -0.36
11 -0.73
12 -0.57
13 -0.41
14 0.28
15 0.28
16 0.28
17 0.28
18 0.18
19 0.3
2 -0.34
20 0.3
21 0.71
22 0.46
23 0.05
24 0.05
25 -0.15
26 -0.15
27 -0.15
28 -0.15
29 -0.01
3 -0.34
30 -0.15
31 -0.15
32 0.08
33 1.3
4 -0.56
42 0.4
43 0.4
44 0.37
45 0.15
46 0.15
47 0.15
48 0.15
49 0.15
5 -0.68
50 0.15
51 0.15
6 -0.68
7 -0.02
8 -0.57
9 -0.28

> <PUBCHEM_EFFECTIVE_ROTOR_COUNT>
10

> <PUBCHEM_PHARMACOPHORE_FEATURES>
14
1 10 acceptor
1 11 donor
1 4 acceptor
1 5 acceptor
1 5 donor
1 6 acceptor
1 6 donor
1 8 acceptor
1 9 acceptor
3 12 13 22 cation
5 4 14 15 16 17 rings
5 7 12 13 20 22 rings
5 9 23 25 28 29 rings
6 24 26 27 30 31 32 rings

> <PUBCHEM_HEAVY_ATOM_COUNT>
33

> <PUBCHEM_ATOM_DEF_STEREO_COUNT>
4

> <PUBCHEM_ATOM_UDEF_STEREO_COUNT>
0

> <PUBCHEM_BOND_DEF_STEREO_COUNT>
0

> <PUBCHEM_BOND_UDEF_STEREO_COUNT>
0

> <PUBCHEM_ISOTOPIC_ATOM_COUNT>
0

> <PUBCHEM_COMPONENT_COUNT>
1

> <PUBCHEM_CACTVS_TAUTO_COUNT>
6

> <PUBCHEM_CONFORMER_ID>
01836C4200000008

> <PUBCHEM_MMFF94_ENERGY>
66.9411

> <PUBCHEM_FEATURE_SELFOVERLAP>
71.061

> <PUBCHEM_SHAPE_FINGERPRINT>
10162869 55 18201995531138029023
10190108 129 18336256861493206322
10688039 33 18261667057431305324
11297750 10 17411073737844937134
11421498 54 17823131221270225898
12107698 1 18260833679099556169
12422481 6 18341605997798495309
12633046 712 16372661017598393661
13540713 5 18198339766006825727
13583140 156 17749933510988999791
13617811 41 11095879376717476139
13782708 43 16660356009266062275
13965767 371 17913171469809102066
14020679 6 18186521033367181259
15840311 113 17560805394971744683
17818456 19 18059851804799299853
17980427 23 18060411430849169503
1813 80 18188475931198105516
18336668 15 18272081699724937640
20642791 178 18341897449720367351
20739085 24 18411694405160039942
21304253 335 17775560965951537342
25147074 1 18200592631167397135
338550 245 18272092686499408497
3680242 22 18202565055647494475
44280116 191 13966150997771130275
5104073 3 18272933864798488963
513202 73 18046616816497187330
513532 50 15195297420956406652
5283268 108 18335690633952190996
57724786 102 18263082261560535573
58260988 393 17823124658876669384
6823239 73 14345787279568495789

> <PUBCHEM_SHAPE_MULTIPOLES>
601.28
15.57
4.13
1.99
23.32
4.09
-0.3
-4.44
-10.15
-5.06
2.86
0.25
0.58
-1.76

> <PUBCHEM_SHAPE_SELFOVERLAP>
1307.314

> <PUBCHEM_SHAPE_VOLUME>
329.7

> <PUBCHEM_COORDINATE_TYPE>
2
5
10

$$$$
