45783351
  -OEChem-12032416273D

 51 53  0     1  0  0  0  0  0999 V2000
   -2.5198    1.6347    1.2623 O   0  0  0  0  0  0  0  0  0  0  0  0
    3.9004   -0.3588   -0.4275 O   0  0  0  0  0  0  0  0  0  0  0  0
    5.9215   -2.2282    0.0771 O   0  0  0  0  0  0  0  0  0  0  0  0
   -3.7198   -1.3281   -0.1975 N   0  0  1  0  0  0  0  0  0  0  0  0
   -1.0393    0.0597    0.6755 N   0  0  0  0  0  0  0  0  0  0  0  0
   -1.2901    2.2898    1.1198 N   0  0  0  0  0  0  0  0  0  0  0  0
    3.6496    1.9040    0.0209 N   0  0  0  0  0  0  0  0  0  0  0  0
   -3.4730   -0.6074    1.0674 C   0  0  1  0  0  0  0  0  0  0  0  0
   -3.2851   -1.7164    2.1191 C   0  0  0  0  0  0  0  0  0  0  0  0
   -4.3336   -2.6051    0.1672 C   0  0  0  0  0  0  0  0  0  0  0  0
   -3.5043   -3.0205    1.3656 C   0  0  0  0  0  0  0  0  0  0  0  0
   -4.5395   -0.5744   -1.1376 C   0  0  0  0  0  0  0  0  0  0  0  0
   -3.7188    0.4437   -1.9478 C   0  0  0  0  0  0  0  0  0  0  0  0
   -2.2836    0.3260    0.9831 C   0  0  0  0  0  0  0  0  0  0  0  0
   -2.6370   -0.2856   -2.7491 C   0  0  0  0  0  0  0  0  0  0  0  0
   -4.5863    1.2771   -2.8945 C   0  0  0  0  0  0  0  0  0  0  0  0
   -0.4680    1.2950    0.7727 C   0  0  0  0  0  0  0  0  0  0  0  0
    0.9283    1.5013    0.5178 C   0  0  0  0  0  0  0  0  0  0  0  0
    1.7389    0.4293    0.1610 C   0  0  0  0  0  0  0  0  0  0  0  0
    1.4768    2.7744    0.6264 C   0  0  0  0  0  0  0  0  0  0  0  0
    3.0809    0.6812   -0.0745 C   0  0  0  0  0  0  0  0  0  0  0  0
    2.8305    2.9215    0.3699 C   0  0  0  0  0  0  0  0  0  0  0  0
    5.2690   -0.0453   -0.6579 C   0  0  0  0  0  0  0  0  0  0  0  0
    6.0152   -1.3173   -1.0114 C   0  0  0  0  0  0  0  0  0  0  0  0
    6.5867   -3.4507   -0.2083 C   0  0  0  0  0  0  0  0  0  0  0  0
   -4.3567   -0.0246    1.3631 H   0  0  0  0  0  0  0  0  0  0  0  0
   -2.3036   -1.7079    2.6054 H   0  0  0  0  0  0  0  0  0  0  0  0
   -4.0470   -1.6142    2.9017 H   0  0  0  0  0  0  0  0  0  0  0  0
   -5.3853   -2.4835    0.4562 H   0  0  0  0  0  0  0  0  0  0  0  0
   -4.2682   -3.3402   -0.6409 H   0  0  0  0  0  0  0  0  0  0  0  0
   -4.0037   -3.7749    1.9805 H   0  0  0  0  0  0  0  0  0  0  0  0
   -2.5396   -3.4294    1.0401 H   0  0  0  0  0  0  0  0  0  0  0  0
   -5.3767   -0.0757   -0.6321 H   0  0  0  0  0  0  0  0  0  0  0  0
   -4.9983   -1.2674   -1.8570 H   0  0  0  0  0  0  0  0  0  0  0  0
   -3.2321    1.1584   -1.2793 H   0  0  0  0  0  0  0  0  0  0  0  0
   -3.0745   -1.0228   -3.4313 H   0  0  0  0  0  0  0  0  0  0  0  0
   -2.0606    0.4251   -3.3517 H   0  0  0  0  0  0  0  0  0  0  0  0
   -1.9260   -0.8036   -2.0979 H   0  0  0  0  0  0  0  0  0  0  0  0
   -5.0974    0.6420   -3.6258 H   0  0  0  0  0  0  0  0  0  0  0  0
   -3.9796    2.0063   -3.4418 H   0  0  0  0  0  0  0  0  0  0  0  0
   -5.3484    1.8279   -2.3332 H   0  0  0  0  0  0  0  0  0  0  0  0
    1.3548   -0.5815    0.0639 H   0  0  0  0  0  0  0  0  0  0  0  0
    0.8942    3.6477    0.9007 H   0  0  0  0  0  0  0  0  0  0  0  0
    3.3073    3.8936    0.4407 H   0  0  0  0  0  0  0  0  0  0  0  0
    5.7033    0.3811    0.2550 H   0  0  0  0  0  0  0  0  0  0  0  0
    5.3608    0.6692   -1.4844 H   0  0  0  0  0  0  0  0  0  0  0  0
    5.5638   -1.7767   -1.8985 H   0  0  0  0  0  0  0  0  0  0  0  0
    7.0672   -1.0897   -1.2158 H   0  0  0  0  0  0  0  0  0  0  0  0
    6.1308   -3.9432   -1.0727 H   0  0  0  0  0  0  0  0  0  0  0  0
    7.6510   -3.2748   -0.3922 H   0  0  0  0  0  0  0  0  0  0  0  0
    6.4868   -4.1078    0.6598 H   0  0  0  0  0  0  0  0  0  0  0  0
  1  6  1  0  0  0  0
  1 14  1  0  0  0  0
  2 21  1  0  0  0  0
  2 23  1  0  0  0  0
  3 24  1  0  0  0  0
  3 25  1  0  0  0  0
  4  8  1  0  0  0  0
  4 10  1  0  0  0  0
  4 12  1  0  0  0  0
  5 14  2  0  0  0  0
  5 17  1  0  0  0  0
  6 17  2  0  0  0  0
  7 21  2  0  0  0  0
  7 22  1  0  0  0  0
  8  9  1  0  0  0  0
  8 14  1  0  0  0  0
  8 26  1  0  0  0  0
  9 11  1  0  0  0  0
  9 27  1  0  0  0  0
  9 28  1  0  0  0  0
 10 11  1  0  0  0  0
 10 29  1  0  0  0  0
 10 30  1  0  0  0  0
 11 31  1  0  0  0  0
 11 32  1  0  0  0  0
 12 13  1  0  0  0  0
 12 33  1  0  0  0  0
 12 34  1  0  0  0  0
 13 15  1  0  0  0  0
 13 16  1  0  0  0  0
 13 35  1  0  0  0  0
 15 36  1  0  0  0  0
 15 37  1  0  0  0  0
 15 38  1  0  0  0  0
 16 39  1  0  0  0  0
 16 40  1  0  0  0  0
 16 41  1  0  0  0  0
 17 18  1  0  0  0  0
 18 19  2  0  0  0  0
 18 20  1  0  0  0  0
 19 21  1  0  0  0  0
 19 42  1  0  0  0  0
 20 22  2  0  0  0  0
 20 43  1  0  0  0  0
 22 44  1  0  0  0  0
 23 24  1  0  0  0  0
 23 45  1  0  0  0  0
 23 46  1  0  0  0  0
 24 47  1  0  0  0  0
 24 48  1  0  0  0  0
 25 49  1  0  0  0  0
 25 50  1  0  0  0  0
 25 51  1  0  0  0  0
M  END
> <PUBCHEM_COMPOUND_CID>
45783351

> <PUBCHEM_CONFORMER_RMSD>
1

> <PUBCHEM_CONFORMER_DIVERSEORDER>
1
47
54
85
55
3
66
24
89
72
60
68
34
13
38
80
39
18
53
73
82
49
76
65
46
26
56
62
51
5
23
48
67
57
8
83
63
4
81
90
58
20
25
79
32
29
70
87
10
45
77
6
78
43
42
41
74
64
91
14
28
35
52
88
9
50
33
30
71
27
84
19
61
36
59
12
7
44
40
37
2
21
69
11
86
17
22
75
16
15
31

> <PUBCHEM_MMFF94_PARTIAL_CHARGES>
23
1 -0.02
10 0.27
12 0.27
14 0.3
17 0.46
18 0.05
19 -0.15
2 -0.36
20 -0.15
21 0.39
22 0.16
23 0.28
24 0.28
25 0.28
3 -0.56
4 -0.81
42 0.15
43 0.15
44 0.15
5 -0.57
6 -0.41
7 -0.62
8 0.45

> <PUBCHEM_EFFECTIVE_ROTOR_COUNT>
9

> <PUBCHEM_PHARMACOPHORE_FEATURES>
7
1 3 acceptor
1 4 cation
3 13 15 16 hydrophobe
3 5 6 17 cation
5 1 5 6 14 17 rings
5 4 8 9 10 11 rings
6 7 18 19 20 21 22 rings

> <PUBCHEM_HEAVY_ATOM_COUNT>
25

> <PUBCHEM_ATOM_DEF_STEREO_COUNT>
1

> <PUBCHEM_ATOM_UDEF_STEREO_COUNT>
0

> <PUBCHEM_BOND_DEF_STEREO_COUNT>
0

> <PUBCHEM_BOND_UDEF_STEREO_COUNT>
0

> <PUBCHEM_ISOTOPIC_ATOM_COUNT>
0

> <PUBCHEM_COMPONENT_COUNT>
1

> <PUBCHEM_CACTVS_TAUTO_COUNT>
1

> <PUBCHEM_CONFORMER_ID>
02BA993700000001

> <PUBCHEM_MMFF94_ENERGY>
48.3606

> <PUBCHEM_FEATURE_SELFOVERLAP>
35.522

> <PUBCHEM_SHAPE_FINGERPRINT>
10622 236 17415826136248009919
10730089 88 17967525783751234997
11135609 201 8502067679250313934
11443803 9 16844173330193309713
11796584 16 17895183395027433610
12390115 104 11026097741541555896
12422481 6 16701754743712925406
12523318 42 14189573048777123687
12633257 1 15051183392653154169
13761468 95 15866022470388915558
14251764 75 7925918071294398562
14848178 5 18411417302687019650
14848178 96 10665223804668554150
14910302 57 18042116725604603999
15163728 17 13551479107828138296
15183329 4 13045935786459670008
15961568 22 16302597091672302637
18927931 339 18201171987094113398
19377110 9 16486972959888705840
20645477 70 18340204223356974424
20693207 138 18116156743059410113
21033650 10 16950557787854306373
22393880 68 18040425616264378034
22620623 9 17604136143062912757
23557571 272 17679006343616508549
23559900 14 18410571816404418520
2838139 119 14129055916168436910
312425 83 17385730243932107868
314194 84 18131354133313548012
32027 91 18411133607191144106
38570 142 14418696874958930180
46194498 28 17606680485404204317
484985 159 18342745109325485699
5104073 3 17989219143962115544
531348 171 17168138992886740146
559249 180 18129945564065434033
5937810 71 11027242316568497982
59755656 520 18188776033590683193
6034566 193 10737292337518595680
636775 72 8356243786346309246
6431902 208 18342179934489412262
7970288 3 18199190774505058971

> <PUBCHEM_SHAPE_MULTIPOLES>
476.96
14.22
3.6
2.1
19.8
1.47
1.43
12.41
5.6
2.93
-1.12
-3.99
-0.22
2.86

> <PUBCHEM_SHAPE_SELFOVERLAP>
992.724

> <PUBCHEM_SHAPE_VOLUME>
274.1

> <PUBCHEM_COORDINATE_TYPE>
2
5
10

$$$$
