45783571
  -OEChem-12032416263D

 57 60  0     1  0  0  0  0  0999 V2000
   -2.4413   -1.7580    1.9141 O   0  0  0  0  0  0  0  0  0  0  0  0
   -2.0595    1.3937   -2.2678 O   0  0  0  0  0  0  0  0  0  0  0  0
    0.5630    3.4549    1.1364 O   0  0  0  0  0  0  0  0  0  0  0  0
    4.8751   -1.0434   -0.0427 O   0  0  0  0  0  0  0  0  0  0  0  0
    7.2167    0.4072   -0.5395 O   0  0  0  0  0  0  0  0  0  0  0  0
   -4.1269   -0.2628   -0.9889 N   0  0  1  0  0  0  0  0  0  0  0  0
   -1.4555   -1.1628   -0.0070 N   0  0  0  0  0  0  0  0  0  0  0  0
   -1.0620   -1.8044    2.1535 N   0  0  0  0  0  0  0  0  0  0  0  0
    2.6810   -0.8618   -0.7754 N   0  0  0  0  0  0  0  0  0  0  0  0
   -4.0053   -1.2439    0.1078 C   0  0  1  0  0  0  0  0  0  0  0  0
   -4.5455   -2.5595   -0.4826 C   0  0  0  0  0  0  0  0  0  0  0  0
   -5.0026   -2.2055   -1.8906 C   0  0  0  0  0  0  0  0  0  0  0  0
   -5.2427   -0.7108   -1.8225 C   0  0  0  0  0  0  0  0  0  0  0  0
   -4.3083    1.1046   -0.5189 C   0  0  0  0  0  0  0  0  0  0  0  0
   -2.5857   -1.3722    0.6193 C   0  0  0  0  0  0  0  0  0  0  0  0
   -3.0062    1.7279   -0.0913 C   0  0  0  0  0  0  0  0  0  0  0  0
   -1.9428    1.8432   -0.9869 C   0  0  0  0  0  0  0  0  0  0  0  0
   -2.8699    2.1930    1.2167 C   0  0  0  0  0  0  0  0  0  0  0  0
   -0.5489   -1.4406    0.9744 C   0  0  0  0  0  0  0  0  0  0  0  0
   -0.7433    2.4235   -0.5743 C   0  0  0  0  0  0  0  0  0  0  0  0
   -1.6703    2.7730    1.6294 C   0  0  0  0  0  0  0  0  0  0  0  0
   -0.6070    2.8883    0.7338 C   0  0  0  0  0  0  0  0  0  0  0  0
    0.8637   -1.3465    0.7436 C   0  0  0  0  0  0  0  0  0  0  0  0
    1.7749   -1.6329    1.7541 C   0  0  0  0  0  0  0  0  0  0  0  0
    1.3633   -0.9687   -0.4923 C   0  0  0  0  0  0  0  0  0  0  0  0
    3.1387   -1.5341    1.5012 C   0  0  0  0  0  0  0  0  0  0  0  0
    3.5366   -1.1480    0.2314 C   0  0  0  0  0  0  0  0  0  0  0  0
    1.6091    3.5413    0.1696 C   0  0  0  0  0  0  0  0  0  0  0  0
    5.2288   -0.6434   -1.3615 C   0  0  0  0  0  0  0  0  0  0  0  0
    6.7396   -0.5617   -1.4652 C   0  0  0  0  0  0  0  0  0  0  0  0
    8.6332    0.5104   -0.5778 C   0  0  0  0  0  0  0  0  0  0  0  0
   -4.6539   -0.9676    0.9511 H   0  0  0  0  0  0  0  0  0  0  0  0
   -3.8090   -3.3700   -0.5049 H   0  0  0  0  0  0  0  0  0  0  0  0
   -5.4050   -2.9022    0.1065 H   0  0  0  0  0  0  0  0  0  0  0  0
   -5.8969   -2.7613   -2.1874 H   0  0  0  0  0  0  0  0  0  0  0  0
   -4.2054   -2.4326   -2.6093 H   0  0  0  0  0  0  0  0  0  0  0  0
   -6.2120   -0.5022   -1.3520 H   0  0  0  0  0  0  0  0  0  0  0  0
   -5.2234   -0.2548   -2.8171 H   0  0  0  0  0  0  0  0  0  0  0  0
   -5.0644    1.1625    0.2752 H   0  0  0  0  0  0  0  0  0  0  0  0
   -4.6943    1.7329   -1.3342 H   0  0  0  0  0  0  0  0  0  0  0  0
   -3.6883    2.1086    1.9267 H   0  0  0  0  0  0  0  0  0  0  0  0
    0.0519    2.4871   -1.3096 H   0  0  0  0  0  0  0  0  0  0  0  0
   -1.5696    3.1324    2.6498 H   0  0  0  0  0  0  0  0  0  0  0  0
   -1.2238    1.5495   -2.7399 H   0  0  0  0  0  0  0  0  0  0  0  0
    1.4572   -1.9352    2.7485 H   0  0  0  0  0  0  0  0  0  0  0  0
    0.7151   -0.7287   -1.3300 H   0  0  0  0  0  0  0  0  0  0  0  0
    3.8627   -1.7537    2.2783 H   0  0  0  0  0  0  0  0  0  0  0  0
    2.4638    4.0179    0.6608 H   0  0  0  0  0  0  0  0  0  0  0  0
    1.3273    4.1817   -0.6730 H   0  0  0  0  0  0  0  0  0  0  0  0
    1.9406    2.5487   -0.1542 H   0  0  0  0  0  0  0  0  0  0  0  0
    4.8030    0.3465   -1.5679 H   0  0  0  0  0  0  0  0  0  0  0  0
    4.8551   -1.3707   -2.0919 H   0  0  0  0  0  0  0  0  0  0  0  0
    7.1805   -1.5348   -1.2194 H   0  0  0  0  0  0  0  0  0  0  0  0
    7.0302   -0.2780   -2.4827 H   0  0  0  0  0  0  0  0  0  0  0  0
    8.9687    0.8204   -1.5723 H   0  0  0  0  0  0  0  0  0  0  0  0
    8.9428    1.2685    0.1466 H   0  0  0  0  0  0  0  0  0  0  0  0
    9.0953   -0.4429   -0.3039 H   0  0  0  0  0  0  0  0  0  0  0  0
  1  8  1  0  0  0  0
  1 15  1  0  0  0  0
  2 17  1  0  0  0  0
  2 44  1  0  0  0  0
  3 22  1  0  0  0  0
  3 28  1  0  0  0  0
  4 27  1  0  0  0  0
  4 29  1  0  0  0  0
  5 30  1  0  0  0  0
  5 31  1  0  0  0  0
  6 10  1  0  0  0  0
  6 13  1  0  0  0  0
  6 14  1  0  0  0  0
  7 15  2  0  0  0  0
  7 19  1  0  0  0  0
  8 19  2  0  0  0  0
  9 25  1  0  0  0  0
  9 27  2  0  0  0  0
 10 11  1  0  0  0  0
 10 15  1  0  0  0  0
 10 32  1  0  0  0  0
 11 12  1  0  0  0  0
 11 33  1  0  0  0  0
 11 34  1  0  0  0  0
 12 13  1  0  0  0  0
 12 35  1  0  0  0  0
 12 36  1  0  0  0  0
 13 37  1  0  0  0  0
 13 38  1  0  0  0  0
 14 16  1  0  0  0  0
 14 39  1  0  0  0  0
 14 40  1  0  0  0  0
 16 17  2  0  0  0  0
 16 18  1  0  0  0  0
 17 20  1  0  0  0  0
 18 21  2  0  0  0  0
 18 41  1  0  0  0  0
 19 23  1  0  0  0  0
 20 22  2  0  0  0  0
 20 42  1  0  0  0  0
 21 22  1  0  0  0  0
 21 43  1  0  0  0  0
 23 24  1  0  0  0  0
 23 25  2  0  0  0  0
 24 26  2  0  0  0  0
 24 45  1  0  0  0  0
 25 46  1  0  0  0  0
 26 27  1  0  0  0  0
 26 47  1  0  0  0  0
 28 48  1  0  0  0  0
 28 49  1  0  0  0  0
 28 50  1  0  0  0  0
 29 30  1  0  0  0  0
 29 51  1  0  0  0  0
 29 52  1  0  0  0  0
 30 53  1  0  0  0  0
 30 54  1  0  0  0  0
 31 55  1  0  0  0  0
 31 56  1  0  0  0  0
 31 57  1  0  0  0  0
M  END
> <PUBCHEM_COMPOUND_CID>
45783571

> <PUBCHEM_CONFORMER_RMSD>
1

> <PUBCHEM_CONFORMER_DIVERSEORDER>
1
123
78
102
128
57
139
44
12
34
70
87
126
101
109
135
17
140
40
120
133
118
131
96
91
59
30
63
125
113
65
137
55
141
67
136
45
32
38
48
39
85
21
127
142
18
43
73
129
41
108
119
28
124
107
112
86
61
14
60
115
132
47
26
79
52
106
20
22
50
35
77
13
143
23
138
117
62
110
29
75
15
25
19
80
3
144
54
64
111
37
88
114
5
121
4
130
2
51
95
105
31
56
10
69
100
99
82
11
16
74
134
36
42
66
81
33
122
53
24
8
84
98
92
76
103
58
89
116
49
104
7
46
71
94
9
93
83
68
72
27
90
97
6

> <PUBCHEM_MMFF94_PARTIAL_CHARGES>
36
1 -0.02
10 0.45
13 0.27
14 0.41
15 0.3
16 -0.14
17 0.08
18 -0.15
19 0.46
2 -0.53
20 -0.15
21 -0.15
22 0.08
23 0.05
24 -0.15
25 0.16
26 -0.15
27 0.39
28 0.28
29 0.28
3 -0.36
30 0.28
31 0.28
4 -0.36
41 0.15
42 0.15
43 0.15
44 0.45
45 0.15
46 0.15
47 0.15
5 -0.56
6 -0.81
7 -0.57
8 -0.41
9 -0.62

> <PUBCHEM_EFFECTIVE_ROTOR_COUNT>
10

> <PUBCHEM_PHARMACOPHORE_FEATURES>
9
1 2 donor
1 3 acceptor
1 5 acceptor
1 6 cation
3 7 8 19 cation
5 1 7 8 15 19 rings
5 6 10 11 12 13 rings
6 16 17 18 20 21 22 rings
6 9 23 24 25 26 27 rings

> <PUBCHEM_HEAVY_ATOM_COUNT>
31

> <PUBCHEM_ATOM_DEF_STEREO_COUNT>
1

> <PUBCHEM_ATOM_UDEF_STEREO_COUNT>
0

> <PUBCHEM_BOND_DEF_STEREO_COUNT>
0

> <PUBCHEM_BOND_UDEF_STEREO_COUNT>
0

> <PUBCHEM_ISOTOPIC_ATOM_COUNT>
0

> <PUBCHEM_COMPONENT_COUNT>
1

> <PUBCHEM_CACTVS_TAUTO_COUNT>
3

> <PUBCHEM_CONFORMER_ID>
02BA9A1300000001

> <PUBCHEM_MMFF94_ENERGY>
78.7453

> <PUBCHEM_FEATURE_SELFOVERLAP>
45.672

> <PUBCHEM_SHAPE_FINGERPRINT>
10454371 7 18340496599540820700
1100329 8 18340480072617805753
11477941 20 18272364287298794188
12107698 1 18342738542146007844
12788726 201 18264487299833875051
13761468 95 17830181203495293204
14931854 50 18260541199746389006
15183329 4 18041286453304401566
17492 54 18040705932169507357
20609170 92 18116147960664563636
20642791 35 18337655461563368377
20691752 17 17532066416043099233
20721686 56 18267867358246264008
20775438 99 17334184207110374311
20905425 154 18195236952972638045
21304303 64 17168144486803721605
21344244 246 17838891882434462703
21403212 168 10447939377950721759
23559900 14 18041275585902408676
255183 451 17984131841448086831
469060 322 16952002550496159105
484985 159 12966836889439441477
497634 4 17132123428714769098
5171179 24 18200869685805504768
999808 66 14333416666092277494

> <PUBCHEM_SHAPE_MULTIPOLES>
588.69
14.57
3.79
1.9
32.87
3.46
0.09
-5.03
-8.93
-2.79
1.04
-0.79
-0.5
-0.97

> <PUBCHEM_SHAPE_SELFOVERLAP>
1262.235

> <PUBCHEM_SHAPE_VOLUME>
327.5

> <PUBCHEM_COORDINATE_TYPE>
2
5
10

$$$$
