56775075
  -OEChem-12032416403D

 54 58  0     1  0  0  0  0  0999 V2000
    1.1998   -3.8281   -0.9952 O   0  0  0  0  0  0  0  0  0  0  0  0
    3.5188   -3.1471    1.5690 O   0  0  0  0  0  0  0  0  0  0  0  0
    3.7494    4.2237   -0.7827 O   0  0  0  0  0  0  0  0  0  0  0  0
   -1.2643   -1.6435   -1.0977 N   0  0  1  0  0  0  0  0  0  0  0  0
    1.9746   -1.7098    0.5862 N   0  0  0  0  0  0  0  0  0  0  0  0
   -4.4768   -0.2242    1.7609 N   0  0  0  0  0  0  0  0  0  0  0  0
    0.9416   -1.4977   -0.4238 C   0  0  1  0  0  0  0  0  0  0  0  0
    0.9014   -2.5428   -1.5343 C   0  0  2  0  0  0  0  0  0  0  0  0
   -0.4777   -1.5686    0.1329 C   0  0  0  0  0  0  0  0  0  0  0  0
   -0.5573   -2.5594   -2.0023 C   0  0  0  0  0  0  0  0  0  0  0  0
   -2.6445   -2.0354   -0.8603 C   0  0  0  0  0  0  0  0  0  0  0  0
    2.7053   -2.8906    0.6803 C   0  0  0  0  0  0  0  0  0  0  0  0
    2.5039   -3.8615   -0.4634 C   0  0  0  0  0  0  0  0  0  0  0  0
    2.1563   -0.6582    1.5783 C   0  0  0  0  0  0  0  0  0  0  0  0
   -3.3563   -1.0680    0.0405 C   0  0  0  0  0  0  0  0  0  0  0  0
    2.5800    0.6385    0.9515 C   0  0  0  0  0  0  0  0  0  0  0  0
   -3.5601    0.3199   -0.1989 C   0  0  0  0  0  0  0  0  0  0  0  0
   -3.9311   -1.3725    1.2529 C   0  0  0  0  0  0  0  0  0  0  0  0
   -4.2653    0.8254    0.8954 C   0  0  0  0  0  0  0  0  0  0  0  0
    3.8919    0.8032    0.5072 C   0  0  0  0  0  0  0  0  0  0  0  0
    1.6610    1.6788    0.8131 C   0  0  0  0  0  0  0  0  0  0  0  0
   -3.2110    1.1973   -1.2447 C   0  0  0  0  0  0  0  0  0  0  0  0
   -4.6405    2.1697    0.9965 C   0  0  0  0  0  0  0  0  0  0  0  0
    4.2850    2.0080   -0.0754 C   0  0  0  0  0  0  0  0  0  0  0  0
    2.0540    2.8837    0.2307 C   0  0  0  0  0  0  0  0  0  0  0  0
   -3.5797    2.5446   -1.1572 C   0  0  0  0  0  0  0  0  0  0  0  0
   -4.2834    3.0212   -0.0529 C   0  0  0  0  0  0  0  0  0  0  0  0
    3.3660    3.0483   -0.2136 C   0  0  0  0  0  0  0  0  0  0  0  0
    2.7590    5.2450   -0.8929 C   0  0  0  0  0  0  0  0  0  0  0  0
    1.1016   -0.5208   -0.8972 H   0  0  0  0  0  0  0  0  0  0  0  0
    1.5923   -2.3147   -2.3544 H   0  0  0  0  0  0  0  0  0  0  0  0
   -0.6078   -2.4555    0.7675 H   0  0  0  0  0  0  0  0  0  0  0  0
   -0.7122   -0.6777    0.7236 H   0  0  0  0  0  0  0  0  0  0  0  0
   -0.9669   -3.5767   -1.9807 H   0  0  0  0  0  0  0  0  0  0  0  0
   -0.6392   -2.1750   -3.0244 H   0  0  0  0  0  0  0  0  0  0  0  0
   -2.6992   -3.0456   -0.4325 H   0  0  0  0  0  0  0  0  0  0  0  0
   -3.1864   -2.0667   -1.8144 H   0  0  0  0  0  0  0  0  0  0  0  0
    3.2432   -3.6541   -1.2454 H   0  0  0  0  0  0  0  0  0  0  0  0
    2.6816   -4.8743   -0.0878 H   0  0  0  0  0  0  0  0  0  0  0  0
    2.9051   -0.9531    2.3230 H   0  0  0  0  0  0  0  0  0  0  0  0
    1.2173   -0.5441    2.1326 H   0  0  0  0  0  0  0  0  0  0  0  0
   -4.0011   -2.3017    1.8011 H   0  0  0  0  0  0  0  0  0  0  0  0
   -4.9643   -0.1559    2.6436 H   0  0  0  0  0  0  0  0  0  0  0  0
    4.6163   -0.0005    0.6096 H   0  0  0  0  0  0  0  0  0  0  0  0
    0.6355    1.5636    1.1541 H   0  0  0  0  0  0  0  0  0  0  0  0
   -2.6648    0.8438   -2.1145 H   0  0  0  0  0  0  0  0  0  0  0  0
   -5.1883    2.5417    1.8558 H   0  0  0  0  0  0  0  0  0  0  0  0
    5.3082    2.1303   -0.4199 H   0  0  0  0  0  0  0  0  0  0  0  0
    1.2895    3.6492    0.1537 H   0  0  0  0  0  0  0  0  0  0  0  0
   -3.3135    3.2259   -1.9610 H   0  0  0  0  0  0  0  0  0  0  0  0
   -4.5597    4.0715   -0.0056 H   0  0  0  0  0  0  0  0  0  0  0  0
    3.2366    6.1085   -1.3675 H   0  0  0  0  0  0  0  0  0  0  0  0
    2.4092    5.5742    0.0915 H   0  0  0  0  0  0  0  0  0  0  0  0
    1.9345    4.9373   -1.5449 H   0  0  0  0  0  0  0  0  0  0  0  0
  1  8  1  0  0  0  0
  1 13  1  0  0  0  0
  2 12  2  0  0  0  0
  3 28  1  0  0  0  0
  3 29  1  0  0  0  0
  4  9  1  0  0  0  0
  4 10  1  0  0  0  0
  4 11  1  0  0  0  0
  5  7  1  0  0  0  0
  5 12  1  0  0  0  0
  5 14  1  0  0  0  0
  6 18  1  0  0  0  0
  6 19  1  0  0  0  0
  6 43  1  0  0  0  0
  7  8  1  0  0  0  0
  7  9  1  0  0  0  0
  7 30  1  0  0  0  0
  8 10  1  0  0  0  0
  8 31  1  0  0  0  0
  9 32  1  0  0  0  0
  9 33  1  0  0  0  0
 10 34  1  0  0  0  0
 10 35  1  0  0  0  0
 11 15  1  0  0  0  0
 11 36  1  0  0  0  0
 11 37  1  0  0  0  0
 12 13  1  0  0  0  0
 13 38  1  0  0  0  0
 13 39  1  0  0  0  0
 14 16  1  0  0  0  0
 14 40  1  0  0  0  0
 14 41  1  0  0  0  0
 15 17  1  0  0  0  0
 15 18  2  0  0  0  0
 16 20  2  0  0  0  0
 16 21  1  0  0  0  0
 17 19  1  0  0  0  0
 17 22  2  0  0  0  0
 18 42  1  0  0  0  0
 19 23  2  0  0  0  0
 20 24  1  0  0  0  0
 20 44  1  0  0  0  0
 21 25  2  0  0  0  0
 21 45  1  0  0  0  0
 22 26  1  0  0  0  0
 22 46  1  0  0  0  0
 23 27  1  0  0  0  0
 23 47  1  0  0  0  0
 24 28  2  0  0  0  0
 24 48  1  0  0  0  0
 25 28  1  0  0  0  0
 25 49  1  0  0  0  0
 26 27  2  0  0  0  0
 26 50  1  0  0  0  0
 27 51  1  0  0  0  0
 29 52  1  0  0  0  0
 29 53  1  0  0  0  0
 29 54  1  0  0  0  0
M  END
> <PUBCHEM_COMPOUND_CID>
56775075

> <PUBCHEM_CONFORMER_RMSD>
0.8

> <PUBCHEM_CONFORMER_DIVERSEORDER>
1
146
161
251
235
164
276
253
145
35
227
190
228
274
232
19
211
47
168
9
123
36
247
117
108
21
177
206
132
50
159
66
277
204
179
258
261
20
271
147
216
268
230
74
259
121
156
210
83
128
148
236
162
208
295
112
256
125
296
100
220
182
97
294
272
212
250
160
8
53
266
199
281
82
29
95
180
252
218
203
171
11
248
70
24
2
178
94
223
78
265
286
46
114
231
90
241
51
56
207
131
284
222
192
285
193
5
151
71
170
224
64
184
34
81
120
124
142
221
185
282
23
107
14
215
200
101
27
278
138
167
269
77
233
263
217
80
15
273
214
55
150
84
225
239
149
137
12
115
17
198
33
61
26
291
292
129
242
111
260
62
136
229
116
45
18
287
63
38
58
41
293
174
113
166
67
143
283
103
99
44
60
28
176
76
255
122
183
10
157
16
188
181
102
32
79
85
48
119
289
135
264
118
201
93
88
189
169
186
133
191
140
205
257
270
110
249
172
194
75
89
59
280
22
87
54
197
152
202
275
30
155
213
173
68
91
52
73
254
40
219
105
65
243
69
7
240
49
288
130
144
25
13
153
244
134
234
37
196
262
42
43
163
209
92
245
279
238
72
3
139
154
104
175
98
158
6
237
57
226
290
141
96
126
39
109
187
31
4
246
86
195
106
267
165
127

> <PUBCHEM_MMFF94_PARTIAL_CHARGES>
38
1 -0.56
10 0.27
11 0.45
12 0.57
13 0.34
14 0.44
15 -0.18
16 -0.14
18 -0.3
19 -0.15
2 -0.57
20 -0.15
21 -0.15
22 -0.15
23 -0.15
24 -0.15
25 -0.15
26 -0.15
27 -0.15
28 0.08
29 0.28
3 -0.36
4 -0.81
42 0.15
43 0.27
44 0.15
45 0.15
46 0.15
47 0.15
48 0.15
49 0.15
5 -0.66
50 0.15
51 0.15
6 0.03
7 0.3
8 0.28
9 0.27

> <PUBCHEM_EFFECTIVE_ROTOR_COUNT>
6.2

> <PUBCHEM_PHARMACOPHORE_FEATURES>
11
1 1 acceptor
1 2 acceptor
1 3 acceptor
1 4 cation
1 6 cation
1 6 donor
5 4 7 8 9 10 rings
5 6 15 17 18 19 rings
6 1 5 7 8 12 13 rings
6 16 20 21 24 25 28 rings
6 17 19 22 23 26 27 rings

> <PUBCHEM_HEAVY_ATOM_COUNT>
29

> <PUBCHEM_ATOM_DEF_STEREO_COUNT>
2

> <PUBCHEM_ATOM_UDEF_STEREO_COUNT>
0

> <PUBCHEM_BOND_DEF_STEREO_COUNT>
0

> <PUBCHEM_BOND_UDEF_STEREO_COUNT>
0

> <PUBCHEM_ISOTOPIC_ATOM_COUNT>
0

> <PUBCHEM_COMPONENT_COUNT>
1

> <PUBCHEM_CACTVS_TAUTO_COUNT>
2

> <PUBCHEM_CONFORMER_ID>
036251A300000001

> <PUBCHEM_MMFF94_ENERGY>
81.9039

> <PUBCHEM_FEATURE_SELFOVERLAP>
56.067

> <PUBCHEM_SHAPE_FINGERPRINT>
10670039 82 18126285478745529444
10871710 139 17908140233053564383
10937287 8 18195242454330196720
11059048 146 17977108182412256580
11374522 363 18188475995491877573
12100795 323 18408597046545538725
12422481 6 18122875713284252786
12633257 1 18120364372543703123
12788726 201 17186429691327938826
12978246 48 18338512074687988209
13402501 40 17764019165199459925
13583140 156 18115864097437765251
14251757 5 17622455256253809628
14251764 38 18339073775501693309
14790565 3 18265898149868833520
14840074 17 18123756619761301157
14950920 106 17458892851134361560
150020 26 18340481171280179121
15003188 100 17980183207476952269
151778 21 18413110571504427505
15463212 79 17907007727376692448
15575132 122 18192148420336335477
1601671 61 18200308797995573726
16991981 162 17256256363298231516
17921350 177 17899676995301363325
18785283 64 18339646642038787391
20739085 24 18340761534392999618
21475661 188 18050845525374461433
21860390 5 18128529358391361118
3610482 184 17249219459159281156
469060 322 14494941705849673042
50150288 127 15587717785307825493
50677037 204 17546163468422595524
5081480 168 17486801600105185877
5252454 2 18059578043974152499
57527293 21 18270977821028707595
57724786 102 18198913509065056601
6371009 1 18124289847945169084
6700243 42 16107312939295716612

> <PUBCHEM_SHAPE_MULTIPOLES>
564.26
9.84
6.38
1.54
6.39
3.17
0.04
7.18
-2.46
-7.06
2.28
0.49
-0.66
-1.03

> <PUBCHEM_SHAPE_SELFOVERLAP>
1240.365

> <PUBCHEM_SHAPE_VOLUME>
306.7

> <PUBCHEM_COORDINATE_TYPE>
2
5
10

$$$$
