75536757
  -OEChem-12032416343D

 55 57  0     1  0  0  0  0  0999 V2000
    8.2936    0.1858    0.5043 S   0  0  0  0  0  0  0  0  0  0  0  0
   -1.8034    0.9295   -0.2822 O   0  0  0  0  0  0  0  0  0  0  0  0
   -0.6728   -2.4033    0.4391 O   0  0  0  0  0  0  0  0  0  0  0  0
   -9.1010    1.1324   -0.3122 O   0  0  0  0  0  0  0  0  0  0  0  0
   -5.2031   -1.8843    0.1234 O   0  0  0  0  0  0  0  0  0  0  0  0
    8.4306    1.0376    1.6777 O   0  0  0  0  0  0  0  0  0  0  0  0
    8.7772   -1.1869    0.5472 O   0  0  0  0  0  0  0  0  0  0  0  0
    1.6117   -0.2980   -0.0343 N   0  0  0  0  0  0  0  0  0  0  0  0
   -4.3415    0.1225    0.8267 N   0  0  0  0  0  0  0  0  0  0  0  0
   -6.5122    0.0172   -0.1033 N   0  0  0  0  0  0  0  0  0  0  0  0
    0.2170   -0.3087   -0.4447 C   0  0  1  0  0  0  0  0  0  0  0  0
   -0.7045   -0.9934    0.5476 C   0  0  1  0  0  0  0  0  0  0  0  0
   -2.0548   -0.4225    0.1362 C   0  0  1  0  0  0  0  0  0  0  0  0
   -0.3914    1.0826   -0.5096 C   0  0  0  0  0  0  0  0  0  0  0  0
   -3.0774   -0.4307    1.2584 C   0  0  0  0  0  0  0  0  0  0  0  0
    2.4839    0.0567   -1.1475 C   0  0  0  0  0  0  0  0  0  0  0  0
   -5.3437   -0.6660    0.2739 C   0  0  0  0  0  0  0  0  0  0  0  0
    3.9321    0.0891   -0.7367 C   0  0  0  0  0  0  0  0  0  0  0  0
   -7.6178   -0.7350   -0.7012 C   0  0  0  0  0  0  0  0  0  0  0  0
   -6.7034    1.4747   -0.1004 C   0  0  0  0  0  0  0  0  0  0  0  0
   -8.9548   -0.2783   -0.1391 C   0  0  0  0  0  0  0  0  0  0  0  0
   -8.0928    1.8384    0.4121 C   0  0  0  0  0  0  0  0  0  0  0  0
    4.4244    1.1671   -0.0010 C   0  0  0  0  0  0  0  0  0  0  0  0
    4.7814   -0.9589   -1.0916 C   0  0  0  0  0  0  0  0  0  0  0  0
    6.6152    0.1493    0.0245 C   0  0  0  0  0  0  0  0  0  0  0  0
    5.7659    1.1974    0.3797 C   0  0  0  0  0  0  0  0  0  0  0  0
    6.1230   -0.9288   -0.7111 C   0  0  0  0  0  0  0  0  0  0  0  0
    9.1188    1.0144   -0.8359 C   0  0  0  0  0  0  0  0  0  0  0  0
    0.1102   -0.8169   -1.4136 H   0  0  0  0  0  0  0  0  0  0  0  0
   -0.4537   -0.7125    1.5781 H   0  0  0  0  0  0  0  0  0  0  0  0
   -2.4572   -0.9629   -0.7307 H   0  0  0  0  0  0  0  0  0  0  0  0
   -0.0076    1.7424    0.2771 H   0  0  0  0  0  0  0  0  0  0  0  0
   -0.2311    1.5694   -1.4763 H   0  0  0  0  0  0  0  0  0  0  0  0
   -2.7401    0.1983    2.0897 H   0  0  0  0  0  0  0  0  0  0  0  0
   -3.2333   -1.4471    1.6354 H   0  0  0  0  0  0  0  0  0  0  0  0
    1.8670   -1.2270    0.3019 H   0  0  0  0  0  0  0  0  0  0  0  0
    2.2242    1.0452   -1.5473 H   0  0  0  0  0  0  0  0  0  0  0  0
    2.3566   -0.6535   -1.9749 H   0  0  0  0  0  0  0  0  0  0  0  0
   -0.8947   -2.6446   -0.4761 H   0  0  0  0  0  0  0  0  0  0  0  0
   -4.4478    1.1209    0.9336 H   0  0  0  0  0  0  0  0  0  0  0  0
   -7.4918   -1.8112   -0.5498 H   0  0  0  0  0  0  0  0  0  0  0  0
   -7.5754   -0.5382   -1.7791 H   0  0  0  0  0  0  0  0  0  0  0  0
   -6.5971    1.7935   -1.1442 H   0  0  0  0  0  0  0  0  0  0  0  0
   -5.9603    2.0107    0.4871 H   0  0  0  0  0  0  0  0  0  0  0  0
   -9.7747   -0.7698   -0.6720 H   0  0  0  0  0  0  0  0  0  0  0  0
   -9.0491   -0.5266    0.9248 H   0  0  0  0  0  0  0  0  0  0  0  0
   -8.1919    1.6140    1.4810 H   0  0  0  0  0  0  0  0  0  0  0  0
   -8.2718    2.9100    0.2792 H   0  0  0  0  0  0  0  0  0  0  0  0
    3.7724    1.9902    0.2799 H   0  0  0  0  0  0  0  0  0  0  0  0
    4.4113   -1.8054   -1.6639 H   0  0  0  0  0  0  0  0  0  0  0  0
    6.1296    2.0494    0.9470 H   0  0  0  0  0  0  0  0  0  0  0  0
    6.7676   -1.7528   -1.0039 H   0  0  0  0  0  0  0  0  0  0  0  0
   10.1834    1.0663   -0.5980 H   0  0  0  0  0  0  0  0  0  0  0  0
    8.9701    0.4412   -1.7529 H   0  0  0  0  0  0  0  0  0  0  0  0
    8.7101    2.0216   -0.9365 H   0  0  0  0  0  0  0  0  0  0  0  0
  1  6  2  0  0  0  0
  1  7  2  0  0  0  0
  1 25  1  0  0  0  0
  1 28  1  0  0  0  0
  2 13  1  0  0  0  0
  2 14  1  0  0  0  0
  3 12  1  0  0  0  0
  3 39  1  0  0  0  0
  4 21  1  0  0  0  0
  4 22  1  0  0  0  0
  5 17  2  0  0  0  0
  8 11  1  0  0  0  0
  8 16  1  0  0  0  0
  8 36  1  0  0  0  0
  9 15  1  0  0  0  0
  9 17  1  0  0  0  0
  9 40  1  0  0  0  0
 10 17  1  0  0  0  0
 10 19  1  0  0  0  0
 10 20  1  0  0  0  0
 11 12  1  0  0  0  0
 11 14  1  0  0  0  0
 11 29  1  0  0  0  0
 12 13  1  0  0  0  0
 12 30  1  0  0  0  0
 13 15  1  0  0  0  0
 13 31  1  0  0  0  0
 14 32  1  0  0  0  0
 14 33  1  0  0  0  0
 15 34  1  0  0  0  0
 15 35  1  0  0  0  0
 16 18  1  0  0  0  0
 16 37  1  0  0  0  0
 16 38  1  0  0  0  0
 18 23  2  0  0  0  0
 18 24  1  0  0  0  0
 19 21  1  0  0  0  0
 19 41  1  0  0  0  0
 19 42  1  0  0  0  0
 20 22  1  0  0  0  0
 20 43  1  0  0  0  0
 20 44  1  0  0  0  0
 21 45  1  0  0  0  0
 21 46  1  0  0  0  0
 22 47  1  0  0  0  0
 22 48  1  0  0  0  0
 23 26  1  0  0  0  0
 23 49  1  0  0  0  0
 24 27  2  0  0  0  0
 24 50  1  0  0  0  0
 25 26  2  0  0  0  0
 25 27  1  0  0  0  0
 26 51  1  0  0  0  0
 27 52  1  0  0  0  0
 28 53  1  0  0  0  0
 28 54  1  0  0  0  0
 28 55  1  0  0  0  0
M  END
> <PUBCHEM_COMPOUND_CID>
75536757

> <PUBCHEM_CONFORMER_RMSD>
1

> <PUBCHEM_CONFORMER_DIVERSEORDER>
1
20
98
101
93
75
120
137
52
83
118
25
32
19
45
99
12
35
119
27
40
140
129
80
92
121
56
100
116
138
135
76
88
68
48
125
53
107
18
60
85
109
69
55
39
124
103
7
122
36
91
29
15
9
43
63
130
41
62
42
133
114
3
10
123
50
126
113
30
74
128
146
102
24
147
70
33
105
79
17
44
149
23
57
46
16
21
65
37
71
4
134
38
73
72
81
14
49
89
97
139
132
11
94
26
112
136
61
58
67
54
108
143
6
90
66
34
144
22
104
115
31
84
110
51
47
78
5
8
127
117
87
77
141
28
64
111
59
13
148
82
145
95
106
96
86
2
142
131

> <PUBCHEM_MMFF94_PARTIAL_CHARGES>
35
1 1.2
10 -0.66
11 0.27
12 0.28
13 0.28
14 0.28
15 0.3
16 0.41
17 0.69
18 -0.14
19 0.3
2 -0.56
20 0.3
21 0.28
22 0.28
23 -0.15
24 -0.15
25 -0.01
26 -0.15
27 -0.15
28 0.11
3 -0.68
36 0.36
39 0.4
4 -0.56
40 0.37
49 0.15
5 -0.57
50 0.15
51 0.15
52 0.15
6 -0.65
7 -0.65
8 -0.9
9 -0.73

> <PUBCHEM_EFFECTIVE_ROTOR_COUNT>
10.2

> <PUBCHEM_PHARMACOPHORE_FEATURES>
13
1 2 acceptor
1 3 acceptor
1 3 donor
1 4 acceptor
1 5 acceptor
1 6 acceptor
1 7 acceptor
1 8 cation
1 8 donor
1 9 donor
5 2 11 12 13 14 rings
6 18 23 24 25 26 27 rings
6 4 10 19 20 21 22 rings

> <PUBCHEM_HEAVY_ATOM_COUNT>
28

> <PUBCHEM_ATOM_DEF_STEREO_COUNT>
3

> <PUBCHEM_ATOM_UDEF_STEREO_COUNT>
0

> <PUBCHEM_BOND_DEF_STEREO_COUNT>
0

> <PUBCHEM_BOND_UDEF_STEREO_COUNT>
0

> <PUBCHEM_ISOTOPIC_ATOM_COUNT>
0

> <PUBCHEM_COMPONENT_COUNT>
1

> <PUBCHEM_CACTVS_TAUTO_COUNT>
2

> <PUBCHEM_CONFORMER_ID>
0480997500000001

> <PUBCHEM_MMFF94_ENERGY>
52.8489

> <PUBCHEM_FEATURE_SELFOVERLAP>
65.992

> <PUBCHEM_SHAPE_FINGERPRINT>
10076449 9 11096165249212949315
10162869 55 17275097353722240188
10299344 5 11530482237625322744
10883706 142 17894634752005655555
11135926 11 18040428889747525123
11315181 36 17131837565109332179
12089408 11 17385725815588599502
12838862 33 18334001804975874247
13885169 127 18411702063240053445
14123256 10 15123792881641406333
14251764 18 18413672426979348150
14251764 46 18410575088958046222
14344974 52 18202278131338135501
15183329 4 16225765225082960389
15347591 1 17606694770406894796
15461852 350 18273218633254934503
15510794 2 18201725050006673191
1754911 235 15913610566400370064
18335252 98 10592049059134556116
20105231 36 11818989673986730112
21095086 128 11024110936635407340
21150785 3 13254797940749465904
21267235 1 9511458923008857739
21362267 313 18263077722006671328
21403212 168 18334011688080945618
21792934 111 18335697256718337060
21792961 116 13551461571439823055
22224240 67 17704354377335097414
232437 2 18409449202643247071
246663 6 8358258146305497665
249057 3 15985098639163632797
2835820 82 16299214710980124410
28498 318 15719388430545075434
335352 9 18261114101133636860
4325135 7 15339120143313135029
4625314 4 17632295713654854470
4874694 18 18201718448805716431
5283156 175 15574712491892351756
5937810 71 17703235002016886529
6126387 218 18273214188428142865
6394761 36 17095523997765861424
67123 10 17846778516400566597
9663363 56 15357695298197444900
99344 41 18411982463900460031
9937071 3 13840259283081501744

> <PUBCHEM_SHAPE_MULTIPOLES>
529.92
34.37
1.56
1.01
5.1
0.12
0.09
-8.02
1.31
1.15
0.12
-1.1
-0.01
0.42

> <PUBCHEM_SHAPE_SELFOVERLAP>
1085.529

> <PUBCHEM_SHAPE_VOLUME>
307.5

> <PUBCHEM_COORDINATE_TYPE>
2
5
10

$$$$
