7142911
  -OEChem-12032416103D

 64 68  0     1  0  0  0  0  0999 V2000
    0.1019    2.6464    1.7232 O   0  0  0  0  0  0  0  0  0  0  0  0
   -3.3972   -1.0375    1.8339 O   0  0  0  0  0  0  0  0  0  0  0  0
    2.7175    0.3824   -1.6735 O   0  0  0  0  0  0  0  0  0  0  0  0
    0.6382   -3.4850    2.4727 O   0  0  0  0  0  0  0  0  0  0  0  0
    0.3449   -4.8061   -2.1049 O   0  0  0  0  0  0  0  0  0  0  0  0
   -4.0004    0.3698    0.1029 N   0  0  0  0  0  0  0  0  0  0  0  0
   -1.6288    2.4375    0.1672 N   0  0  0  0  0  0  0  0  0  0  0  0
   -2.8082   -1.6166   -0.3345 N   0  0  0  0  0  0  0  0  0  0  0  0
    2.0329    1.9596   -0.1069 N   0  0  0  0  0  0  0  0  0  0  0  0
   -4.0938    2.7567    0.7887 C   0  0  1  0  0  0  0  0  0  0  0  0
   -3.4780    2.1644   -1.5230 C   0  0  2  0  0  0  0  0  0  0  0  0
   -4.2590    3.1665   -0.6717 C   0  0  0  0  0  0  0  0  0  0  0  0
   -4.6277    1.3280    1.0159 C   0  0  0  0  0  0  0  0  0  0  0  0
   -2.6118    2.8849    1.1653 C   0  0  0  0  0  0  0  0  0  0  0  0
   -4.0712    0.7573   -1.3165 C   0  0  0  0  0  0  0  0  0  0  0  0
   -2.0072    2.1626   -1.1517 C   0  0  0  0  0  0  0  0  0  0  0  0
   -1.0773    1.8606   -2.0731 C   0  0  0  0  0  0  0  0  0  0  0  0
   -0.2817    2.3951    0.5798 C   0  0  0  0  0  0  0  0  0  0  0  0
   -3.4065   -0.7991    0.6235 C   0  0  0  0  0  0  0  0  0  0  0  0
    0.7204    2.0287   -0.4708 C   0  0  0  0  0  0  0  0  0  0  0  0
    0.3130    1.7916   -1.7221 C   0  0  0  0  0  0  0  0  0  0  0  0
   -1.6927   -2.4717   -0.1593 C   0  0  0  0  0  0  0  0  0  0  0  0
    2.9583    1.1359   -0.7335 C   0  0  0  0  0  0  0  0  0  0  0  0
   -1.2175   -3.2270   -1.2312 C   0  0  0  0  0  0  0  0  0  0  0  0
   -1.0691   -2.5581    1.0854 C   0  0  0  0  0  0  0  0  0  0  0  0
    4.3477    1.2142   -0.2122 C   0  0  0  0  0  0  0  0  0  0  0  0
    0.0297   -3.4001    1.2582 C   0  0  0  0  0  0  0  0  0  0  0  0
   -0.1188   -4.0688   -1.0587 C   0  0  0  0  0  0  0  0  0  0  0  0
    0.5049   -4.1554    0.1860 C   0  0  0  0  0  0  0  0  0  0  0  0
    5.4240    0.9147   -1.0475 C   0  0  0  0  0  0  0  0  0  0  0  0
    4.5758    1.5879    1.1123 C   0  0  0  0  0  0  0  0  0  0  0  0
    6.7282    0.9884   -0.5584 C   0  0  0  0  0  0  0  0  0  0  0  0
    5.8801    1.6616    1.6013 C   0  0  0  0  0  0  0  0  0  0  0  0
    6.9562    1.3619    0.7659 C   0  0  0  0  0  0  0  0  0  0  0  0
    0.1010   -2.6857    3.5254 C   0  0  0  0  0  0  0  0  0  0  0  0
    1.4719   -5.6457   -1.8583 C   0  0  0  0  0  0  0  0  0  0  0  0
   -4.6732    3.4334    1.4287 H   0  0  0  0  0  0  0  0  0  0  0  0
   -3.5977    2.4437   -2.5777 H   0  0  0  0  0  0  0  0  0  0  0  0
   -5.3195    3.1627   -0.9517 H   0  0  0  0  0  0  0  0  0  0  0  0
   -3.8879    4.1864   -0.8320 H   0  0  0  0  0  0  0  0  0  0  0  0
   -4.4802    1.0343    2.0600 H   0  0  0  0  0  0  0  0  0  0  0  0
   -5.7067    1.2962    0.8214 H   0  0  0  0  0  0  0  0  0  0  0  0
   -2.4107    2.3667    2.1114 H   0  0  0  0  0  0  0  0  0  0  0  0
   -2.3857    3.9444    1.3473 H   0  0  0  0  0  0  0  0  0  0  0  0
   -5.1304    0.7430   -1.6015 H   0  0  0  0  0  0  0  0  0  0  0  0
   -3.5577    0.0543   -1.9731 H   0  0  0  0  0  0  0  0  0  0  0  0
   -1.3475    1.6334   -3.0991 H   0  0  0  0  0  0  0  0  0  0  0  0
    0.9788    1.5803   -2.5499 H   0  0  0  0  0  0  0  0  0  0  0  0
   -3.1885   -1.6139   -1.2742 H   0  0  0  0  0  0  0  0  0  0  0  0
    2.2694    2.4354    0.7572 H   0  0  0  0  0  0  0  0  0  0  0  0
   -1.6983   -3.1643   -2.2048 H   0  0  0  0  0  0  0  0  0  0  0  0
   -1.4141   -1.9428    1.8996 H   0  0  0  0  0  0  0  0  0  0  0  0
    1.3621   -4.7907    0.3834 H   0  0  0  0  0  0  0  0  0  0  0  0
    5.2674    0.6262   -2.0835 H   0  0  0  0  0  0  0  0  0  0  0  0
    3.7729    1.7925    1.8130 H   0  0  0  0  0  0  0  0  0  0  0  0
    7.5662    0.7558   -1.2088 H   0  0  0  0  0  0  0  0  0  0  0  0
    6.0582    1.9436    2.6351 H   0  0  0  0  0  0  0  0  0  0  0  0
    7.9716    1.4176    1.1473 H   0  0  0  0  0  0  0  0  0  0  0  0
    0.7006   -2.8868    4.4194 H   0  0  0  0  0  0  0  0  0  0  0  0
   -0.9293   -2.9704    3.7648 H   0  0  0  0  0  0  0  0  0  0  0  0
    0.2016   -1.6161    3.3114 H   0  0  0  0  0  0  0  0  0  0  0  0
    1.7051   -6.1574   -2.7978 H   0  0  0  0  0  0  0  0  0  0  0  0
    1.2419   -6.4219   -1.1205 H   0  0  0  0  0  0  0  0  0  0  0  0
    2.3570   -5.0613   -1.5849 H   0  0  0  0  0  0  0  0  0  0  0  0
  1 18  2  0  0  0  0
  2 19  2  0  0  0  0
  3 23  2  0  0  0  0
  4 27  1  0  0  0  0
  4 35  1  0  0  0  0
  5 28  1  0  0  0  0
  5 36  1  0  0  0  0
  6 13  1  0  0  0  0
  6 15  1  0  0  0  0
  6 19  1  0  0  0  0
  7 14  1  0  0  0  0
  7 16  1  0  0  0  0
  7 18  1  0  0  0  0
  8 19  1  0  0  0  0
  8 22  1  0  0  0  0
  8 49  1  0  0  0  0
  9 20  1  0  0  0  0
  9 23  1  0  0  0  0
  9 50  1  0  0  0  0
 10 12  1  0  0  0  0
 10 13  1  0  0  0  0
 10 14  1  0  0  0  0
 10 37  1  0  0  0  0
 11 12  1  0  0  0  0
 11 15  1  0  0  0  0
 11 16  1  0  0  0  0
 11 38  1  0  0  0  0
 12 39  1  0  0  0  0
 12 40  1  0  0  0  0
 13 41  1  0  0  0  0
 13 42  1  0  0  0  0
 14 43  1  0  0  0  0
 14 44  1  0  0  0  0
 15 45  1  0  0  0  0
 15 46  1  0  0  0  0
 16 17  2  0  0  0  0
 17 21  1  0  0  0  0
 17 47  1  0  0  0  0
 18 20  1  0  0  0  0
 20 21  2  0  0  0  0
 21 48  1  0  0  0  0
 22 24  2  0  0  0  0
 22 25  1  0  0  0  0
 23 26  1  0  0  0  0
 24 28  1  0  0  0  0
 24 51  1  0  0  0  0
 25 27  2  0  0  0  0
 25 52  1  0  0  0  0
 26 30  2  0  0  0  0
 26 31  1  0  0  0  0
 27 29  1  0  0  0  0
 28 29  2  0  0  0  0
 29 53  1  0  0  0  0
 30 32  1  0  0  0  0
 30 54  1  0  0  0  0
 31 33  2  0  0  0  0
 31 55  1  0  0  0  0
 32 34  2  0  0  0  0
 32 56  1  0  0  0  0
 33 34  1  0  0  0  0
 33 57  1  0  0  0  0
 34 58  1  0  0  0  0
 35 59  1  0  0  0  0
 35 60  1  0  0  0  0
 35 61  1  0  0  0  0
 36 62  1  0  0  0  0
 36 63  1  0  0  0  0
 36 64  1  0  0  0  0
M  END
> <PUBCHEM_COMPOUND_CID>
7142911

> <PUBCHEM_CONFORMER_RMSD>
1

> <PUBCHEM_CONFORMER_DIVERSEORDER>
1
38
17
30
11
23
34
46
50
47
10
40
53
13
21
44
19
55
56
14
43
39
48
15
20
45
49
5
28
25
54
27
42
9
33
6
36
22
4
37
26
7
18
24
29
35
8
31
52
41
51
12
32
2
16
3

> <PUBCHEM_MMFF94_PARTIAL_CHARGES>
46
1 -0.57
11 0.14
13 0.3
14 0.3
15 0.3
16 -0.03
17 -0.15
18 0.62
19 0.69
2 -0.57
20 0.12
21 -0.15
22 0.12
23 0.54
24 -0.15
25 -0.15
26 0.09
27 0.08
28 0.08
29 -0.15
3 -0.57
30 -0.15
31 -0.15
32 -0.15
33 -0.15
34 -0.15
35 0.28
36 0.28
4 -0.36
47 0.15
48 0.15
49 0.37
5 -0.36
50 0.37
51 0.15
52 0.15
53 0.15
54 0.15
55 0.15
56 0.15
57 0.15
58 0.15
6 -0.66
7 -0.47
8 -0.55
9 -0.54

> <PUBCHEM_EFFECTIVE_ROTOR_COUNT>
9

> <PUBCHEM_PHARMACOPHORE_FEATURES>
12
1 1 acceptor
1 2 acceptor
1 3 acceptor
1 4 acceptor
1 5 acceptor
1 8 donor
1 9 donor
6 22 24 25 27 28 29 rings
6 26 30 31 32 33 34 rings
6 6 10 11 12 13 15 rings
6 7 10 11 12 14 16 rings
6 7 16 17 18 20 21 rings

> <PUBCHEM_HEAVY_ATOM_COUNT>
36

> <PUBCHEM_ATOM_DEF_STEREO_COUNT>
2

> <PUBCHEM_ATOM_UDEF_STEREO_COUNT>
0

> <PUBCHEM_BOND_DEF_STEREO_COUNT>
0

> <PUBCHEM_BOND_UDEF_STEREO_COUNT>
0

> <PUBCHEM_ISOTOPIC_ATOM_COUNT>
0

> <PUBCHEM_COMPONENT_COUNT>
1

> <PUBCHEM_CACTVS_TAUTO_COUNT>
4

> <PUBCHEM_CONFORMER_ID>
006CFDFF00000001

> <PUBCHEM_MMFF94_ENERGY>
130.8366

> <PUBCHEM_FEATURE_SELFOVERLAP>
62.499

> <PUBCHEM_SHAPE_FINGERPRINT>
11513181 2 18343579629734323886
11524674 6 18411694391932603820
12156800 1 16841304853757221951
12422481 6 17750225916261683912
12608794 3 18055655037999494745
12655364 131 15050912784745537452
12712778 12 18264762345709059528
12788726 201 18047476904755894140
14020679 6 18060145348729929089
14114207 22 17387386005164096535
14659021 117 17981589778721111562
14674994 50 18197785599144972736
14725015 67 18119250803593644547
14844126 61 18195523925090944634
15274700 242 16951105371200649072
15320294 125 18113610218838361302
16112460 7 18336543795045938538
16120349 306 18261101950703071496
16719943 64 18409168835393461538
19611394 137 17985820661649748832
20587220 17 17553241759921797761
20775530 9 17329437653428731558
21133665 82 18334577920101329638
21796203 349 16756952224117769722
238918 7 18337409187242024779
3383291 50 18270397338169132903
3882209 13 17049052280278734950
4616759 239 12750937959447204692
5080951 261 17971444482280311848
5085150 59 18411407427855482044
5265222 85 18335997457246179997
57527358 35 15336348227624429103
6287921 2 17624394399627832123

> <PUBCHEM_SHAPE_MULTIPOLES>
691.59
11.32
6.98
2.35
19.47
11.79
-1
-12.49
-1.28
-1.4
1.45
0.06
1.78
1.04

> <PUBCHEM_SHAPE_SELFOVERLAP>
1510.717

> <PUBCHEM_SHAPE_VOLUME>
367.9

> <PUBCHEM_COORDINATE_TYPE>
2
5
10

$$$$
