40778240
  -OEChem-12032416173D

 58 61  0     1  0  0  0  0  0999 V2000
    8.7863    0.8187    0.7019 F   0  0  0  0  0  0  0  0  0  0  0  0
   -3.5431   -0.3583   -0.4194 O   0  0  0  0  0  0  0  0  0  0  0  0
   -5.7328   -2.4504   -0.7132 O   0  0  0  0  0  0  0  0  0  0  0  0
   -3.7971   -3.7437    0.7529 O   0  0  0  0  0  0  0  0  0  0  0  0
   -2.3688    1.9070    1.1612 O   0  0  0  0  0  0  0  0  0  0  0  0
   -1.1574   -1.1626   -2.0809 O   0  0  0  0  0  0  0  0  0  0  0  0
   -4.6716    1.9733    0.8333 N   0  0  0  0  0  0  0  0  0  0  0  0
    0.7011   -1.0577   -0.6901 N   0  0  0  0  0  0  0  0  0  0  0  0
    3.4953   -0.4592   -0.2265 N   0  0  0  0  0  0  0  0  0  0  0  0
   -3.3231    3.9045    0.3653 C   0  0  0  0  0  0  0  0  0  0  0  0
   -4.9044   -0.3491    0.0680 C   0  0  1  0  0  0  0  0  0  0  0  0
   -2.9815   -1.6661   -0.2112 C   0  0  2  0  0  0  0  0  0  0  0  0
   -5.2342   -1.7883    0.4486 C   0  0  2  0  0  0  0  0  0  0  0  0
   -3.8721   -2.3357    0.8217 C   0  0  1  0  0  0  0  0  0  0  0  0
   -2.4094    4.2533   -0.7726 C   0  0  0  0  0  0  0  0  0  0  0  0
   -3.8963    4.2634   -0.9743 C   0  0  0  0  0  0  0  0  0  0  0  0
   -4.9699    0.6097    1.2489 C   0  0  0  0  0  0  0  0  0  0  0  0
   -1.5355   -1.5370    0.2333 C   0  0  0  0  0  0  0  0  0  0  0  0
   -3.3959    2.4880    0.8309 C   0  0  0  0  0  0  0  0  0  0  0  0
   -0.6571   -1.2348   -0.9561 C   0  0  0  0  0  0  0  0  0  0  0  0
    1.6180   -0.7670   -1.7895 C   0  0  0  0  0  0  0  0  0  0  0  0
    1.2921   -1.1332    0.6479 C   0  0  0  0  0  0  0  0  0  0  0  0
    2.7677    0.1371   -1.3505 C   0  0  0  0  0  0  0  0  0  0  0  0
    2.7916   -1.4286    0.6170 C   0  0  0  0  0  0  0  0  0  0  0  0
    4.8300   -0.1372    0.0075 C   0  0  0  0  0  0  0  0  0  0  0  0
    5.3164    1.1205   -0.3495 C   0  0  0  0  0  0  0  0  0  0  0  0
    5.6799   -1.0715    0.5995 C   0  0  0  0  0  0  0  0  0  0  0  0
    6.6528    1.4438   -0.1149 C   0  0  0  0  0  0  0  0  0  0  0  0
    7.0163   -0.7483    0.8341 C   0  0  0  0  0  0  0  0  0  0  0  0
    7.5027    0.5093    0.4769 C   0  0  0  0  0  0  0  0  0  0  0  0
   -3.4085    4.6428    1.1565 H   0  0  0  0  0  0  0  0  0  0  0  0
   -5.5383    0.0151   -0.7489 H   0  0  0  0  0  0  0  0  0  0  0  0
   -3.0547   -2.2204   -1.1562 H   0  0  0  0  0  0  0  0  0  0  0  0
   -5.9789   -1.8948    1.2424 H   0  0  0  0  0  0  0  0  0  0  0  0
   -3.5990   -2.0145    1.8342 H   0  0  0  0  0  0  0  0  0  0  0  0
   -1.8437    3.4620   -1.2494 H   0  0  0  0  0  0  0  0  0  0  0  0
   -1.8992    5.2081   -0.7361 H   0  0  0  0  0  0  0  0  0  0  0  0
   -4.3858    5.2249   -1.0712 H   0  0  0  0  0  0  0  0  0  0  0  0
   -4.3182    3.4841   -1.5971 H   0  0  0  0  0  0  0  0  0  0  0  0
   -4.2520    0.3309    2.0281 H   0  0  0  0  0  0  0  0  0  0  0  0
   -5.9741    0.6200    1.6844 H   0  0  0  0  0  0  0  0  0  0  0  0
   -1.2045   -2.4883    0.6633 H   0  0  0  0  0  0  0  0  0  0  0  0
   -1.4249   -0.7380    0.9735 H   0  0  0  0  0  0  0  0  0  0  0  0
   -5.4487    2.5565    0.5370 H   0  0  0  0  0  0  0  0  0  0  0  0
    1.0744   -0.3063   -2.6213 H   0  0  0  0  0  0  0  0  0  0  0  0
    2.0027   -1.7310   -2.1447 H   0  0  0  0  0  0  0  0  0  0  0  0
    0.7873   -1.8964    1.2458 H   0  0  0  0  0  0  0  0  0  0  0  0
    1.1073   -0.1634    1.1262 H   0  0  0  0  0  0  0  0  0  0  0  0
   -6.5871   -2.0424   -0.9359 H   0  0  0  0  0  0  0  0  0  0  0  0
   -4.4721   -4.1010    1.3546 H   0  0  0  0  0  0  0  0  0  0  0  0
    3.4301    0.2826   -2.2125 H   0  0  0  0  0  0  0  0  0  0  0  0
    2.3755    1.1164   -1.0497 H   0  0  0  0  0  0  0  0  0  0  0  0
    3.1592   -1.3938    1.6499 H   0  0  0  0  0  0  0  0  0  0  0  0
    2.9650   -2.4395    0.2279 H   0  0  0  0  0  0  0  0  0  0  0  0
    4.6781    1.8765   -0.7983 H   0  0  0  0  0  0  0  0  0  0  0  0
    5.3381   -2.0652    0.8750 H   0  0  0  0  0  0  0  0  0  0  0  0
    7.0316    2.4238   -0.3897 H   0  0  0  0  0  0  0  0  0  0  0  0
    7.6796   -1.4765    1.2914 H   0  0  0  0  0  0  0  0  0  0  0  0
  1 30  1  0  0  0  0
  2 11  1  0  0  0  0
  2 12  1  0  0  0  0
  3 13  1  0  0  0  0
  3 49  1  0  0  0  0
  4 14  1  0  0  0  0
  4 50  1  0  0  0  0
  5 19  2  0  0  0  0
  6 20  2  0  0  0  0
  7 17  1  0  0  0  0
  7 19  1  0  0  0  0
  7 44  1  0  0  0  0
  8 20  1  0  0  0  0
  8 21  1  0  0  0  0
  8 22  1  0  0  0  0
  9 23  1  0  0  0  0
  9 24  1  0  0  0  0
  9 25  1  0  0  0  0
 10 15  1  0  0  0  0
 10 16  1  0  0  0  0
 10 19  1  0  0  0  0
 10 31  1  0  0  0  0
 11 13  1  0  0  0  0
 11 17  1  0  0  0  0
 11 32  1  0  0  0  0
 12 14  1  0  0  0  0
 12 18  1  0  0  0  0
 12 33  1  0  0  0  0
 13 14  1  0  0  0  0
 13 34  1  0  0  0  0
 14 35  1  0  0  0  0
 15 16  1  0  0  0  0
 15 36  1  0  0  0  0
 15 37  1  0  0  0  0
 16 38  1  0  0  0  0
 16 39  1  0  0  0  0
 17 40  1  0  0  0  0
 17 41  1  0  0  0  0
 18 20  1  0  0  0  0
 18 42  1  0  0  0  0
 18 43  1  0  0  0  0
 21 23  1  0  0  0  0
 21 45  1  0  0  0  0
 21 46  1  0  0  0  0
 22 24  1  0  0  0  0
 22 47  1  0  0  0  0
 22 48  1  0  0  0  0
 23 51  1  0  0  0  0
 23 52  1  0  0  0  0
 24 53  1  0  0  0  0
 24 54  1  0  0  0  0
 25 26  2  0  0  0  0
 25 27  1  0  0  0  0
 26 28  1  0  0  0  0
 26 55  1  0  0  0  0
 27 29  2  0  0  0  0
 27 56  1  0  0  0  0
 28 30  2  0  0  0  0
 28 57  1  0  0  0  0
 29 30  1  0  0  0  0
 29 58  1  0  0  0  0
M  END
> <PUBCHEM_COMPOUND_CID>
40778240

> <PUBCHEM_CONFORMER_RMSD>
1

> <PUBCHEM_CONFORMER_DIVERSEORDER>
1
123
88
116
22
10
104
67
115
30
79
94
35
40
48
77
63
85
80
125
68
66
106
20
102
114
110
8
5
18
121
119
76
73
41
49
107
69
47
45
98
112
46
36
32
53
95
29
33
44
97
60
93
92
108
26
124
6
17
99
71
54
4
62
87
75
101
42
39
37
57
12
23
3
111
117
120
14
74
109
19
90
28
34
91
103
56
24
7
25
61
31
21
65
118
84
52
13
58
51
86
64
82
11
105
9
72
27
70
100
81
43
89
55
96
78
38
2
122
83
16
15
50
113
59

> <PUBCHEM_MMFF94_PARTIAL_CHARGES>
42
1 -0.19
10 -0.1
11 0.28
12 0.28
13 0.28
14 0.28
15 -0.2
16 -0.2
17 0.3
18 0.06
19 0.63
2 -0.56
20 0.57
21 0.3
22 0.3
23 0.37
24 0.37
25 0.1
26 -0.15
27 -0.15
28 -0.15
29 -0.15
3 -0.68
30 0.19
31 0.1
36 0.1
37 0.1
38 0.1
39 0.1
4 -0.68
44 0.37
49 0.4
5 -0.57
50 0.4
55 0.15
56 0.15
57 0.15
58 0.15
6 -0.57
7 -0.73
8 -0.66
9 -0.84

> <PUBCHEM_EFFECTIVE_ROTOR_COUNT>
10.8

> <PUBCHEM_PHARMACOPHORE_FEATURES>
12
1 2 acceptor
1 3 acceptor
1 3 donor
1 4 acceptor
1 4 donor
1 5 acceptor
1 6 acceptor
1 7 donor
1 9 cation
5 2 11 12 13 14 rings
6 25 26 27 28 29 30 rings
6 8 9 21 22 23 24 rings

> <PUBCHEM_HEAVY_ATOM_COUNT>
30

> <PUBCHEM_ATOM_DEF_STEREO_COUNT>
4

> <PUBCHEM_ATOM_UDEF_STEREO_COUNT>
0

> <PUBCHEM_BOND_DEF_STEREO_COUNT>
0

> <PUBCHEM_BOND_UDEF_STEREO_COUNT>
0

> <PUBCHEM_ISOTOPIC_ATOM_COUNT>
0

> <PUBCHEM_COMPONENT_COUNT>
1

> <PUBCHEM_CACTVS_TAUTO_COUNT>
2

> <PUBCHEM_CONFORMER_ID>
026E3A0000000001

> <PUBCHEM_MMFF94_ENERGY>
84.0286

> <PUBCHEM_FEATURE_SELFOVERLAP>
60.91

> <PUBCHEM_SHAPE_FINGERPRINT>
100830 39 18410009906154913704
10087517 78 18410857667978943141
10369192 42 16917073269347268581
10554248 39 15123792882353829356
10670039 82 18341325652018083392
10816530 145 17822292422572827447
11101153 10 18338234984893868716
11211813 15 17897713285759076165
11315181 36 18187364380576896083
12104220 1 18334572477380785534
12107183 9 17757262687516190450
12107698 1 18341330097356603344
12522641 33 9943267900678763475
12596602 18 18259983807860521618
13167372 99 18411136927480315170
13403585 85 18342177777750782195
13726171 33 18129670677336759689
13911987 19 16558750087987603879
14289585 56 14117521986988918536
14395042 24 18338255834020410865
14849402 71 18042974370861259700
14856354 85 18338240478157150959
15338160 23 18410291389262610269
15419008 145 18335127688821556800
15876981 60 18334860567092175917
16992779 147 16541596315184300593
17686467 74 17986663977327882787
18603816 31 12540973061730880400
19309040 13 16699779922198932185
20511986 3 17387128672478372049
21315764 268 18272928362707843680
21792965 68 18337662036805027292
22956985 138 17398679386179190771
23522609 53 17532113647867032604
23523788 1 11885711523437772389
24771293 8 18202011980958030169
249057 25 17968103044841667876
3117164 225 17902227819354712570
3663271 9 18334292076858127234
4144715 1 18337962203563857522
469060 322 18194151627901812715
5104073 3 18188473702637229682
57527585 21 16628267703123951465
57828716 94 16589169288726014788
6201320 215 18200868479916642536

> <PUBCHEM_SHAPE_MULTIPOLES>
565.82
19.63
4.41
1.29
36.78
4.82
-0.4
2.85
5.52
-10.27
-0.18
-0.28
-0.04
-0.09

> <PUBCHEM_SHAPE_SELFOVERLAP>
1192.943

> <PUBCHEM_SHAPE_VOLUME>
318.4

> <PUBCHEM_COORDINATE_TYPE>
2
5
10

$$$$
