51138115
  -OEChem-12032416143D

 55 57  0     1  0  0  0  0  0999 V2000
   -2.6663    2.4695   -0.9168 O   0  0  0  0  0  0  0  0  0  0  0  0
   -1.3007   -0.2416   -0.3962 N   0  0  0  0  0  0  0  0  0  0  0  0
    3.5099    1.1879    0.1679 N   0  0  0  0  0  0  0  0  0  0  0  0
   -3.4353    1.4431    1.0260 N   0  0  0  0  0  0  0  0  0  0  0  0
   -0.6289   -1.3616    0.2763 C   0  0  2  0  0  0  0  0  0  0  0  0
    0.8941   -1.2512    0.4007 C   0  0  0  0  0  0  0  0  0  0  0  0
    1.6457   -0.0517    0.2379 C   0  0  0  0  0  0  0  0  0  0  0  0
   -1.1925    1.0356    0.2942 C   0  0  1  0  0  0  0  0  0  0  0  0
   -1.0677   -2.6088   -0.5120 C   0  0  0  0  0  0  0  0  0  0  0  0
    1.2995    1.3139   -0.0504 C   0  0  0  0  0  0  0  0  0  0  0  0
   -0.0596    1.8871   -0.2755 C   0  0  0  0  0  0  0  0  0  0  0  0
    3.0366   -0.0833    0.3919 C   0  0  0  0  0  0  0  0  0  0  0  0
   -2.4971   -3.0514   -0.1845 C   0  0  0  0  0  0  0  0  0  0  0  0
    2.4748    2.0364   -0.0928 C   0  0  0  0  0  0  0  0  0  0  0  0
    1.6290   -2.4026    0.7823 C   0  0  0  0  0  0  0  0  0  0  0  0
   -2.4983    1.7275    0.0473 C   0  0  0  0  0  0  0  0  0  0  0  0
    3.7474   -1.2382    0.7224 C   0  0  0  0  0  0  0  0  0  0  0  0
    3.0148   -2.4000    0.9288 C   0  0  0  0  0  0  0  0  0  0  0  0
   -2.8236   -4.3242   -0.9691 C   0  0  0  0  0  0  0  0  0  0  0  0
   -3.5343   -1.9717   -0.4963 C   0  0  0  0  0  0  0  0  0  0  0  0
    4.8992    1.5907    0.2175 C   0  0  0  0  0  0  0  0  0  0  0  0
    5.6430    1.2400   -1.0372 C   0  0  0  0  0  0  0  0  0  0  0  0
   -4.7675    2.0030    1.0315 C   0  0  0  0  0  0  0  0  0  0  0  0
    6.7408    0.4760   -1.0654 C   0  0  0  0  0  0  0  0  0  0  0  0
   -5.6800    1.0981    0.2724 C   0  0  0  0  0  0  0  0  0  0  0  0
   -6.3830    1.4777   -0.8008 C   0  0  0  0  0  0  0  0  0  0  0  0
   -1.0139   -1.4449    1.3020 H   0  0  0  0  0  0  0  0  0  0  0  0
   -1.0572    0.9073    1.3766 H   0  0  0  0  0  0  0  0  0  0  0  0
   -0.4248   -3.4697   -0.3076 H   0  0  0  0  0  0  0  0  0  0  0  0
   -0.9574   -2.4385   -1.5934 H   0  0  0  0  0  0  0  0  0  0  0  0
   -0.1875    2.0409   -1.3563 H   0  0  0  0  0  0  0  0  0  0  0  0
   -0.1018    2.8869    0.1785 H   0  0  0  0  0  0  0  0  0  0  0  0
   -0.9958   -0.1634   -1.3658 H   0  0  0  0  0  0  0  0  0  0  0  0
   -2.5627   -3.2945    0.8837 H   0  0  0  0  0  0  0  0  0  0  0  0
    2.6455    3.0874   -0.2864 H   0  0  0  0  0  0  0  0  0  0  0  0
    1.1175   -3.3351    1.0094 H   0  0  0  0  0  0  0  0  0  0  0  0
    4.8249   -1.2400    0.8433 H   0  0  0  0  0  0  0  0  0  0  0  0
    3.5266   -3.3139    1.2186 H   0  0  0  0  0  0  0  0  0  0  0  0
   -2.1116   -5.1228   -0.7347 H   0  0  0  0  0  0  0  0  0  0  0  0
   -3.8246   -4.6909   -0.7177 H   0  0  0  0  0  0  0  0  0  0  0  0
   -2.7906   -4.1455   -2.0494 H   0  0  0  0  0  0  0  0  0  0  0  0
   -3.3961   -1.5391   -1.4923 H   0  0  0  0  0  0  0  0  0  0  0  0
   -3.5255   -1.1869    0.2609 H   0  0  0  0  0  0  0  0  0  0  0  0
   -4.5449   -2.3963   -0.4676 H   0  0  0  0  0  0  0  0  0  0  0  0
    4.9307    2.6770    0.3624 H   0  0  0  0  0  0  0  0  0  0  0  0
    5.3482    1.1398    1.1099 H   0  0  0  0  0  0  0  0  0  0  0  0
   -3.1968    0.7949    1.7711 H   0  0  0  0  0  0  0  0  0  0  0  0
    5.2700    1.6480   -1.9734 H   0  0  0  0  0  0  0  0  0  0  0  0
   -5.0932    2.0741    2.0738 H   0  0  0  0  0  0  0  0  0  0  0  0
   -4.7383    3.0118    0.6063 H   0  0  0  0  0  0  0  0  0  0  0  0
    7.2387    0.2642   -2.0053 H   0  0  0  0  0  0  0  0  0  0  0  0
    7.1590    0.0508   -0.1598 H   0  0  0  0  0  0  0  0  0  0  0  0
   -5.7925    0.0780    0.6309 H   0  0  0  0  0  0  0  0  0  0  0  0
   -7.0386    0.7755   -1.3041 H   0  0  0  0  0  0  0  0  0  0  0  0
   -6.3171    2.4857   -1.1948 H   0  0  0  0  0  0  0  0  0  0  0  0
  1 16  2  0  0  0  0
  2  5  1  0  0  0  0
  2  8  1  0  0  0  0
  2 33  1  0  0  0  0
  3 12  1  0  0  0  0
  3 14  1  0  0  0  0
  3 21  1  0  0  0  0
  4 16  1  0  0  0  0
  4 23  1  0  0  0  0
  4 47  1  0  0  0  0
  5  6  1  0  0  0  0
  5  9  1  0  0  0  0
  5 27  1  0  0  0  0
  6  7  2  0  0  0  0
  6 15  1  0  0  0  0
  7 10  1  0  0  0  0
  7 12  1  0  0  0  0
  8 11  1  0  0  0  0
  8 16  1  0  0  0  0
  8 28  1  0  0  0  0
  9 13  1  0  0  0  0
  9 29  1  0  0  0  0
  9 30  1  0  0  0  0
 10 11  1  0  0  0  0
 10 14  2  0  0  0  0
 11 31  1  0  0  0  0
 11 32  1  0  0  0  0
 12 17  2  0  0  0  0
 13 19  1  0  0  0  0
 13 20  1  0  0  0  0
 13 34  1  0  0  0  0
 14 35  1  0  0  0  0
 15 18  2  0  0  0  0
 15 36  1  0  0  0  0
 17 18  1  0  0  0  0
 17 37  1  0  0  0  0
 18 38  1  0  0  0  0
 19 39  1  0  0  0  0
 19 40  1  0  0  0  0
 19 41  1  0  0  0  0
 20 42  1  0  0  0  0
 20 43  1  0  0  0  0
 20 44  1  0  0  0  0
 21 22  1  0  0  0  0
 21 45  1  0  0  0  0
 21 46  1  0  0  0  0
 22 24  2  0  0  0  0
 22 48  1  0  0  0  0
 23 25  1  0  0  0  0
 23 49  1  0  0  0  0
 23 50  1  0  0  0  0
 24 51  1  0  0  0  0
 24 52  1  0  0  0  0
 25 26  2  0  0  0  0
 25 53  1  0  0  0  0
 26 54  1  0  0  0  0
 26 55  1  0  0  0  0
M  END
> <PUBCHEM_COMPOUND_CID>
51138115

> <PUBCHEM_CONFORMER_RMSD>
1

> <PUBCHEM_CONFORMER_DIVERSEORDER>
1
6
13
24
28
19
3
2
21
17
15
5
20
23
4
18
9
14
10
8
12
7
22
25
27
16
11
26

> <PUBCHEM_MMFF94_PARTIAL_CHARGES>
33
1 -0.57
10 -0.18
11 0.18
12 -0.15
14 -0.3
15 -0.15
16 0.57
17 -0.15
18 -0.15
2 -0.9
21 0.39
22 -0.29
23 0.44
24 -0.3
25 -0.29
26 -0.3
3 0.05
33 0.36
35 0.15
36 0.15
37 0.15
38 0.15
4 -0.73
47 0.37
48 0.15
5 0.41
51 0.15
52 0.15
53 0.15
54 0.15
55 0.15
6 -0.14
8 0.33

> <PUBCHEM_EFFECTIVE_ROTOR_COUNT>
8.8

> <PUBCHEM_PHARMACOPHORE_FEATURES>
11
1 1 acceptor
1 2 cation
1 2 donor
1 24 hydrophobe
1 26 hydrophobe
1 3 cation
1 4 donor
3 13 19 20 hydrophobe
5 3 7 10 12 14 rings
6 6 7 12 15 17 18 rings
7 2 5 6 7 8 10 11 rings

> <PUBCHEM_HEAVY_ATOM_COUNT>
26

> <PUBCHEM_ATOM_DEF_STEREO_COUNT>
2

> <PUBCHEM_ATOM_UDEF_STEREO_COUNT>
0

> <PUBCHEM_BOND_DEF_STEREO_COUNT>
0

> <PUBCHEM_BOND_UDEF_STEREO_COUNT>
0

> <PUBCHEM_ISOTOPIC_ATOM_COUNT>
0

> <PUBCHEM_COMPONENT_COUNT>
1

> <PUBCHEM_CACTVS_TAUTO_COUNT>
2

> <PUBCHEM_CONFORMER_ID>
030C4E4300000001

> <PUBCHEM_MMFF94_ENERGY>
50.3026

> <PUBCHEM_FEATURE_SELFOVERLAP>
55.951

> <PUBCHEM_SHAPE_FINGERPRINT>
10616163 171 18339923830485285774
1100329 8 18339072688268501258
12788726 201 18339073920987737155
12954195 1 18271254910331280710
13140716 1 18410283697413818922
13540713 5 18334562565187402698
14178342 30 18267000908422963240
14790565 3 18340208462611183625
14931854 50 18268971229418606231
15131766 46 15721108170010613020
17138139 8 17771872109784888671
19319366 153 17968099668707677482
19591789 44 17619629085915468307
20028762 73 18057592175999394919
21236236 1 18339365278952610064
21421861 104 17968642836062611906
22393880 68 18340767135072122476
23558518 356 18049729812471136205
23559900 14 18201152269195072464
244849 19 17130980022921654896
25147074 1 18261101985622076290
283562 15 18121775299243903978
335352 9 18409170983631295348
34934 24 18334012791560025563
350125 39 18409165510772100936
5104073 3 18336817676462402656
5486654 2 18341894070050778809
59554788 170 18118126875108413076
59755656 215 18343309154125913052
59755656 520 18412829079448048645
6438718 38 17989196071440044375

> <PUBCHEM_SHAPE_MULTIPOLES>
514.26
12.76
4.1
0.99
1.62
3.89
0.03
-7.49
2.54
-3.97
0.56
0.09
0.07
-1.76

> <PUBCHEM_SHAPE_SELFOVERLAP>
1080.901

> <PUBCHEM_SHAPE_VOLUME>
290.2

> <PUBCHEM_COORDINATE_TYPE>
2
5
10

$$$$
