25338526
  -OEChem-12032416353D

 57 60  0     1  0  0  0  0  0999 V2000
   -0.5265   -3.5280   -0.8107 O   0  0  0  0  0  0  0  0  0  0  0  0
   -4.6724    2.0316   -1.2534 O   0  0  0  0  0  0  0  0  0  0  0  0
   -2.9751   -2.0664    1.2594 N   0  0  1  0  0  0  0  0  0  0  0  0
   -3.6740    0.7392    0.4000 N   0  0  0  0  0  0  0  0  0  0  0  0
   -0.1685   -1.4516   -0.0511 N   0  0  0  0  0  0  0  0  0  0  0  0
    0.8562   -3.3184   -0.8872 N   0  0  0  0  0  0  0  0  0  0  0  0
   -4.1933   -0.5420   -0.0159 C   0  0  1  0  0  0  0  0  0  0  0  0
   -2.5563   -2.3524   -0.1262 C   0  0  1  0  0  0  0  0  0  0  0  0
   -3.2347   -1.2549   -0.9696 C   0  0  0  0  0  0  0  0  0  0  0  0
   -4.3223   -1.4960    1.1619 C   0  0  0  0  0  0  0  0  0  0  0  0
   -1.0539   -2.3808   -0.3089 C   0  0  0  0  0  0  0  0  0  0  0  0
   -2.9426   -3.2408    2.1227 C   0  0  0  0  0  0  0  0  0  0  0  0
   -1.8563    3.4187   -0.1497 C   0  0  0  0  0  0  0  0  0  0  0  0
   -3.2844    3.1313    0.3719 C   0  0  0  0  0  0  0  0  0  0  0  0
   -3.9593    1.9236   -0.2578 C   0  0  0  0  0  0  0  0  0  0  0  0
   -1.2476    4.6455    0.5503 C   0  0  0  0  0  0  0  0  0  0  0  0
   -0.9774    2.1923    0.1652 C   0  0  0  0  0  0  0  0  0  0  0  0
   -1.8470    3.6456   -1.6703 C   0  0  0  0  0  0  0  0  0  0  0  0
    0.9886   -2.0726   -0.4219 C   0  0  0  0  0  0  0  0  0  0  0  0
    2.2613   -1.4196   -0.3163 C   0  0  0  0  0  0  0  0  0  0  0  0
    2.3375   -0.1166    0.1766 C   0  0  0  0  0  0  0  0  0  0  0  0
    3.4195   -2.0864   -0.7047 C   0  0  0  0  0  0  0  0  0  0  0  0
    3.5759    0.5366    0.2868 C   0  0  0  0  0  0  0  0  0  0  0  0
    4.7536   -0.1415   -0.1083 C   0  0  0  0  0  0  0  0  0  0  0  0
    4.6582   -1.4528   -0.6021 C   0  0  0  0  0  0  0  0  0  0  0  0
    3.6712    1.8479    0.7804 C   0  0  0  0  0  0  0  0  0  0  0  0
    5.9919    0.5118    0.0017 C   0  0  0  0  0  0  0  0  0  0  0  0
    4.9099    2.4816    0.8829 C   0  0  0  0  0  0  0  0  0  0  0  0
    6.0681    1.8149    0.4944 C   0  0  0  0  0  0  0  0  0  0  0  0
   -5.1645   -0.3783   -0.4963 H   0  0  0  0  0  0  0  0  0  0  0  0
   -2.9674   -3.3194   -0.4505 H   0  0  0  0  0  0  0  0  0  0  0  0
   -2.5257   -0.5640   -1.4395 H   0  0  0  0  0  0  0  0  0  0  0  0
   -3.8090   -1.7315   -1.7741 H   0  0  0  0  0  0  0  0  0  0  0  0
   -4.6182   -0.9899    2.0871 H   0  0  0  0  0  0  0  0  0  0  0  0
   -5.0635   -2.2724    0.9312 H   0  0  0  0  0  0  0  0  0  0  0  0
   -3.0470    0.7559    1.1988 H   0  0  0  0  0  0  0  0  0  0  0  0
   -1.9238   -3.6346    2.2028 H   0  0  0  0  0  0  0  0  0  0  0  0
   -3.5939   -4.0439    1.7597 H   0  0  0  0  0  0  0  0  0  0  0  0
   -3.2594   -2.9753    3.1372 H   0  0  0  0  0  0  0  0  0  0  0  0
   -3.9305    3.9985    0.1826 H   0  0  0  0  0  0  0  0  0  0  0  0
   -3.2708    2.9999    1.4619 H   0  0  0  0  0  0  0  0  0  0  0  0
   -1.8458    5.5424    0.3552 H   0  0  0  0  0  0  0  0  0  0  0  0
   -1.2081    4.5005    1.6356 H   0  0  0  0  0  0  0  0  0  0  0  0
   -0.2275    4.8412    0.2015 H   0  0  0  0  0  0  0  0  0  0  0  0
   -1.2494    1.3179   -0.4326 H   0  0  0  0  0  0  0  0  0  0  0  0
   -1.0228    1.9235    1.2262 H   0  0  0  0  0  0  0  0  0  0  0  0
    0.0723    2.4084   -0.0677 H   0  0  0  0  0  0  0  0  0  0  0  0
   -2.1833    2.7595   -2.2189 H   0  0  0  0  0  0  0  0  0  0  0  0
   -0.8383    3.8839   -2.0269 H   0  0  0  0  0  0  0  0  0  0  0  0
   -2.5023    4.4796   -1.9445 H   0  0  0  0  0  0  0  0  0  0  0  0
    1.4378    0.4093    0.4891 H   0  0  0  0  0  0  0  0  0  0  0  0
    3.3992   -3.1017   -1.0931 H   0  0  0  0  0  0  0  0  0  0  0  0
    5.5508   -1.9927   -0.9115 H   0  0  0  0  0  0  0  0  0  0  0  0
    2.7791    2.3887    1.0897 H   0  0  0  0  0  0  0  0  0  0  0  0
    6.9101    0.0098   -0.2962 H   0  0  0  0  0  0  0  0  0  0  0  0
    4.9698    3.4960    1.2663 H   0  0  0  0  0  0  0  0  0  0  0  0
    7.0321    2.3089    0.5745 H   0  0  0  0  0  0  0  0  0  0  0  0
  1  6  1  0  0  0  0
  1 11  1  0  0  0  0
  2 15  2  0  0  0  0
  3  8  1  0  0  0  0
  3 10  1  0  0  0  0
  3 12  1  0  0  0  0
  4  7  1  0  0  0  0
  4 15  1  0  0  0  0
  4 36  1  0  0  0  0
  5 11  2  0  0  0  0
  5 19  1  0  0  0  0
  6 19  2  0  0  0  0
  7  9  1  0  0  0  0
  7 10  1  0  0  0  0
  7 30  1  0  0  0  0
  8  9  1  0  0  0  0
  8 11  1  0  0  0  0
  8 31  1  0  0  0  0
  9 32  1  0  0  0  0
  9 33  1  0  0  0  0
 10 34  1  0  0  0  0
 10 35  1  0  0  0  0
 12 37  1  0  0  0  0
 12 38  1  0  0  0  0
 12 39  1  0  0  0  0
 13 14  1  0  0  0  0
 13 16  1  0  0  0  0
 13 17  1  0  0  0  0
 13 18  1  0  0  0  0
 14 15  1  0  0  0  0
 14 40  1  0  0  0  0
 14 41  1  0  0  0  0
 16 42  1  0  0  0  0
 16 43  1  0  0  0  0
 16 44  1  0  0  0  0
 17 45  1  0  0  0  0
 17 46  1  0  0  0  0
 17 47  1  0  0  0  0
 18 48  1  0  0  0  0
 18 49  1  0  0  0  0
 18 50  1  0  0  0  0
 19 20  1  0  0  0  0
 20 21  2  0  0  0  0
 20 22  1  0  0  0  0
 21 23  1  0  0  0  0
 21 51  1  0  0  0  0
 22 25  2  0  0  0  0
 22 52  1  0  0  0  0
 23 24  1  0  0  0  0
 23 26  2  0  0  0  0
 24 25  1  0  0  0  0
 24 27  2  0  0  0  0
 25 53  1  0  0  0  0
 26 28  1  0  0  0  0
 26 54  1  0  0  0  0
 27 29  1  0  0  0  0
 27 55  1  0  0  0  0
 28 29  2  0  0  0  0
 28 56  1  0  0  0  0
 29 57  1  0  0  0  0
M  END
> <PUBCHEM_COMPOUND_CID>
25338526

> <PUBCHEM_CONFORMER_RMSD>
0.8

> <PUBCHEM_CONFORMER_DIVERSEORDER>
1
102
151
196
33
253
178
217
221
35
6
225
18
197
142
149
109
248
39
170
23
194
160
223
99
161
29
229
205
251
202
112
50
40
125
159
41
193
32
169
27
165
164
111
213
143
8
209
186
85
250
44
175
203
95
87
114
30
179
80
206
12
242
70
167
107
26
156
147
56
208
216
28
113
138
110
14
239
181
24
177
54
69
185
243
115
9
247
224
3
180
238
231
130
204
192
48
162
98
215
45
65
91
75
53
144
137
230
106
235
62
129
163
60
31
90
126
71
52
218
38
155
139
232
200
222
94
83
134
188
191
89
122
121
172
104
96
19
157
93
34
92
101
171
234
245
10
256
37
154
233
148
66
241
240
116
187
57
176
140
249
214
199
78
211
21
74
228
88
84
252
16
201
219
58
59
146
81
5
246
210
182
61
63
150
254
244
158
207
153
25
67
236
120
46
77
132
47
4
76
255
183
237
108
141
79
105
184
13
36
168
226
119
190
118
86
103
64
152
131
133
127
145
7
136
195
173
220
97
42
51
22
189
55
15
72
198
128
166
73
117
123
227
17
174
49
2
82
100
124
43
135
212
68
20
11

> <PUBCHEM_MMFF94_PARTIAL_CHARGES>
30
1 -0.02
10 0.27
11 0.3
12 0.27
14 0.06
15 0.57
19 0.46
2 -0.57
20 0.05
21 -0.15
22 -0.15
25 -0.15
26 -0.15
27 -0.15
28 -0.15
29 -0.15
3 -0.81
36 0.37
4 -0.73
5 -0.57
51 0.15
52 0.15
53 0.15
54 0.15
55 0.15
56 0.15
57 0.15
6 -0.41
7 0.3
8 0.45

> <PUBCHEM_EFFECTIVE_ROTOR_COUNT>
7

> <PUBCHEM_PHARMACOPHORE_FEATURES>
9
1 2 acceptor
1 3 cation
1 4 donor
3 5 6 19 cation
4 13 16 17 18 hydrophobe
5 1 5 6 11 19 rings
5 3 7 8 9 10 rings
6 20 21 22 23 24 25 rings
6 23 24 26 27 28 29 rings

> <PUBCHEM_HEAVY_ATOM_COUNT>
29

> <PUBCHEM_ATOM_DEF_STEREO_COUNT>
2

> <PUBCHEM_ATOM_UDEF_STEREO_COUNT>
0

> <PUBCHEM_BOND_DEF_STEREO_COUNT>
0

> <PUBCHEM_BOND_UDEF_STEREO_COUNT>
0

> <PUBCHEM_ISOTOPIC_ATOM_COUNT>
0

> <PUBCHEM_COMPONENT_COUNT>
1

> <PUBCHEM_CACTVS_TAUTO_COUNT>
2

> <PUBCHEM_CONFORMER_ID>
0182A29E00000001

> <PUBCHEM_MMFF94_ENERGY>
67.6058

> <PUBCHEM_FEATURE_SELFOVERLAP>
45.698

> <PUBCHEM_SHAPE_FINGERPRINT>
100830 39 18410572886605583808
10256941 240 17171780476424088524
10439779 11 17762045550264640594
10670039 82 18336280015324211132
11014199 57 17548130486355778358
11513181 2 18130787845685547510
11595378 159 18040985255161952704
13402501 40 18413668019720761153
13561361 72 18338226167901049256
13947920 24 18343300375102289352
14251764 38 18195805172239105826
14363568 33 17688607368901307537
14466204 15 18123745353767477410
14747282 125 17478911818867408020
15320467 1 18196931287116703776
15419008 145 18337095831761774072
15721738 15 16893116822382070820
15961568 22 18339924929980686822
16067690 210 18187352259973128048
16992787 43 18266733594676802685
19611394 137 17900549183359682987
20398071 114 18121496852097947469
21033648 144 17987798656707125494
21033648 29 18271799168307565834
21315764 268 18338515231709879766
21734292 116 18413105048171106028
21859007 373 18272081687810343098
22956985 138 16672201305778525963
25019877 29 17202218502204070711
3117164 225 17972305227827849362
325973 47 18412262860972254412
338550 245 18336269028629439244
350125 39 18412547600782642132
373842 8 18263364865976728852
437795 96 18125145289414122992
474144 1 17534640487884250764
50150288 127 16270539421261811001
508706 21 18409448059722990964
6036956 94 18408324406206254037
6371009 1 18051672374607399660
7288768 16 18114745911312726363
9981440 41 18334858299218334779

> <PUBCHEM_SHAPE_MULTIPOLES>
565.14
12.34
5.78
1.21
12.89
3.25
0.19
3.75
1.53
-4.79
-0.08
-0.96
-0.3
2.77

> <PUBCHEM_SHAPE_SELFOVERLAP>
1216.005

> <PUBCHEM_SHAPE_VOLUME>
315.4

> <PUBCHEM_COORDINATE_TYPE>
2
5
10

$$$$
