11885161
  -OEChem-12032416113D

 50 54  0     1  0  0  0  0  0999 V2000
   -7.2839   -1.1589   -0.8194 Cl  0  0  0  0  0  0  0  0  0  0  0  0
    1.5166   -5.0933    1.1060 F   0  0  0  0  0  0  0  0  0  0  0  0
   -1.5806    2.1210   -1.3201 O   0  0  0  0  0  0  0  0  0  0  0  0
    2.7467   -0.1543   -2.5893 O   0  0  0  0  0  0  0  0  0  0  0  0
    3.1440    0.8221   -0.5250 N   0  0  0  0  0  0  0  0  0  0  0  0
    0.2831    2.0044    0.0773 N   0  0  0  0  0  0  0  0  0  0  0  0
    2.4780    3.2171   -0.4496 C   0  0  1  0  0  0  0  0  0  0  0  0
    2.2977    1.8335    1.5788 C   0  0  2  0  0  0  0  0  0  0  0  0
    2.6756    3.2209    1.0625 C   0  0  0  0  0  0  0  0  0  0  0  0
    3.3716    2.1473   -1.1042 C   0  0  0  0  0  0  0  0  0  0  0  0
    0.9908    2.9918   -0.7514 C   0  0  0  0  0  0  0  0  0  0  0  0
    3.2251    0.7753    0.9455 C   0  0  0  0  0  0  0  0  0  0  0  0
    0.8542    1.5033    1.2498 C   0  0  0  0  0  0  0  0  0  0  0  0
    0.1438    0.6982    2.0558 C   0  0  0  0  0  0  0  0  0  0  0  0
   -1.0295    1.6741   -0.3126 C   0  0  0  0  0  0  0  0  0  0  0  0
    2.7976   -0.2548   -1.3624 C   0  0  0  0  0  0  0  0  0  0  0  0
   -1.7833    0.7319    0.5864 C   0  0  0  0  0  0  0  0  0  0  0  0
   -1.1932    0.3050    1.7127 C   0  0  0  0  0  0  0  0  0  0  0  0
    2.4635   -1.5170   -0.7175 C   0  0  0  0  0  0  0  0  0  0  0  0
   -3.1370    0.2670    0.2402 C   0  0  0  0  0  0  0  0  0  0  0  0
    1.1445   -1.7841   -0.3593 C   0  0  0  0  0  0  0  0  0  0  0  0
    3.4643   -2.4515   -0.4631 C   0  0  0  0  0  0  0  0  0  0  0  0
   -4.2535    0.9797    0.6784 C   0  0  0  0  0  0  0  0  0  0  0  0
   -3.3041   -0.8872   -0.5260 C   0  0  0  0  0  0  0  0  0  0  0  0
    0.8243   -2.9938    0.2573 C   0  0  0  0  0  0  0  0  0  0  0  0
    3.1439   -3.6611    0.1533 C   0  0  0  0  0  0  0  0  0  0  0  0
   -5.5357    0.5387    0.3508 C   0  0  0  0  0  0  0  0  0  0  0  0
   -4.5863   -1.3280   -0.8535 C   0  0  0  0  0  0  0  0  0  0  0  0
    1.8239   -3.9322    0.5135 C   0  0  0  0  0  0  0  0  0  0  0  0
   -5.7021   -0.6151   -0.4151 C   0  0  0  0  0  0  0  0  0  0  0  0
    2.7706    4.1910   -0.8610 H   0  0  0  0  0  0  0  0  0  0  0  0
    2.4454    1.8195    2.6664 H   0  0  0  0  0  0  0  0  0  0  0  0
    2.0542    3.9939    1.5319 H   0  0  0  0  0  0  0  0  0  0  0  0
    3.7186    3.4516    1.3116 H   0  0  0  0  0  0  0  0  0  0  0  0
    3.2107    2.1347   -2.1870 H   0  0  0  0  0  0  0  0  0  0  0  0
    4.4282    2.3902   -0.9379 H   0  0  0  0  0  0  0  0  0  0  0  0
    0.8499    2.7284   -1.8073 H   0  0  0  0  0  0  0  0  0  0  0  0
    0.4549    3.9392   -0.6025 H   0  0  0  0  0  0  0  0  0  0  0  0
    2.9925   -0.2182    1.3361 H   0  0  0  0  0  0  0  0  0  0  0  0
    4.2688    0.9835    1.2118 H   0  0  0  0  0  0  0  0  0  0  0  0
    0.5696    0.2833    2.9633 H   0  0  0  0  0  0  0  0  0  0  0  0
   -1.6922   -0.3787    2.3933 H   0  0  0  0  0  0  0  0  0  0  0  0
    0.3561   -1.0730   -0.5808 H   0  0  0  0  0  0  0  0  0  0  0  0
    4.4958   -2.2498   -0.7395 H   0  0  0  0  0  0  0  0  0  0  0  0
   -4.1400    1.8814    1.2754 H   0  0  0  0  0  0  0  0  0  0  0  0
   -2.4442   -1.4534   -0.8757 H   0  0  0  0  0  0  0  0  0  0  0  0
   -0.2045   -3.2069    0.5324 H   0  0  0  0  0  0  0  0  0  0  0  0
    3.9219   -4.3918    0.3533 H   0  0  0  0  0  0  0  0  0  0  0  0
   -6.3960    1.1045    0.6991 H   0  0  0  0  0  0  0  0  0  0  0  0
   -4.7008   -2.2286   -1.4512 H   0  0  0  0  0  0  0  0  0  0  0  0
  1 30  1  0  0  0  0
  2 29  1  0  0  0  0
  3 15  2  0  0  0  0
  4 16  2  0  0  0  0
  5 10  1  0  0  0  0
  5 12  1  0  0  0  0
  5 16  1  0  0  0  0
  6 11  1  0  0  0  0
  6 13  1  0  0  0  0
  6 15  1  0  0  0  0
  7  9  1  0  0  0  0
  7 10  1  0  0  0  0
  7 11  1  0  0  0  0
  7 31  1  0  0  0  0
  8  9  1  0  0  0  0
  8 12  1  0  0  0  0
  8 13  1  0  0  0  0
  8 32  1  0  0  0  0
  9 33  1  0  0  0  0
  9 34  1  0  0  0  0
 10 35  1  0  0  0  0
 10 36  1  0  0  0  0
 11 37  1  0  0  0  0
 11 38  1  0  0  0  0
 12 39  1  0  0  0  0
 12 40  1  0  0  0  0
 13 14  2  0  0  0  0
 14 18  1  0  0  0  0
 14 41  1  0  0  0  0
 15 17  1  0  0  0  0
 16 19  1  0  0  0  0
 17 18  2  0  0  0  0
 17 20  1  0  0  0  0
 18 42  1  0  0  0  0
 19 21  2  0  0  0  0
 19 22  1  0  0  0  0
 20 23  2  0  0  0  0
 20 24  1  0  0  0  0
 21 25  1  0  0  0  0
 21 43  1  0  0  0  0
 22 26  2  0  0  0  0
 22 44  1  0  0  0  0
 23 27  1  0  0  0  0
 23 45  1  0  0  0  0
 24 28  2  0  0  0  0
 24 46  1  0  0  0  0
 25 29  2  0  0  0  0
 25 47  1  0  0  0  0
 26 29  1  0  0  0  0
 26 48  1  0  0  0  0
 27 30  2  0  0  0  0
 27 49  1  0  0  0  0
 28 30  1  0  0  0  0
 28 50  1  0  0  0  0
M  END
> <PUBCHEM_COMPOUND_CID>
11885161

> <PUBCHEM_CONFORMER_RMSD>
0.8

> <PUBCHEM_CONFORMER_DIVERSEORDER>
1
6
4
3
5
2

> <PUBCHEM_MMFF94_PARTIAL_CHARGES>
38
1 -0.18
10 0.3
11 0.3
12 0.3
13 -0.03
14 -0.15
15 0.62
16 0.54
17 -0.01
18 -0.15
19 0.09
2 -0.19
20 0.03
21 -0.15
22 -0.15
23 -0.15
24 -0.15
25 -0.15
26 -0.15
27 -0.15
28 -0.15
29 0.19
3 -0.57
30 0.18
4 -0.57
41 0.15
42 0.15
43 0.15
44 0.15
45 0.15
46 0.15
47 0.15
48 0.15
49 0.15
5 -0.66
50 0.15
6 -0.47
8 0.14

> <PUBCHEM_EFFECTIVE_ROTOR_COUNT>
4

> <PUBCHEM_PHARMACOPHORE_FEATURES>
7
1 3 acceptor
1 4 acceptor
6 19 21 22 25 26 29 rings
6 20 23 24 27 28 30 rings
6 5 7 8 9 10 12 rings
6 6 13 14 15 17 18 rings
6 6 7 8 9 11 13 rings

> <PUBCHEM_HEAVY_ATOM_COUNT>
30

> <PUBCHEM_ATOM_DEF_STEREO_COUNT>
2

> <PUBCHEM_ATOM_UDEF_STEREO_COUNT>
0

> <PUBCHEM_BOND_DEF_STEREO_COUNT>
0

> <PUBCHEM_BOND_UDEF_STEREO_COUNT>
0

> <PUBCHEM_ISOTOPIC_ATOM_COUNT>
0

> <PUBCHEM_COMPONENT_COUNT>
1

> <PUBCHEM_CACTVS_TAUTO_COUNT>
1

> <PUBCHEM_CONFORMER_ID>
00B55A6900000001

> <PUBCHEM_MMFF94_ENERGY>
86.0042

> <PUBCHEM_FEATURE_SELFOVERLAP>
37.12

> <PUBCHEM_SHAPE_FINGERPRINT>
10074138 170 17190624276521716680
10675989 125 18200595929301879985
10930396 42 18339343246820571304
11135609 149 18119501303265969743
11370993 70 18126002916862504952
114674 6 18410011044009783538
11796584 16 17632303380540989789
12107183 9 17983586195970297881
12293681 25 17830702423494108460
13004483 165 17471291747587584034
13150687 139 17971211441787287188
13533116 47 18272930557815335545
1361 2 18264770037758200549
13617811 41 18335695109856674973
13631057 29 17906179447840848038
14068700 675 18121503453969362734
15324115 91 18335986445118220583
15324884 4 17682993202780305104
15664445 248 18337674221242506917
17093844 170 18267582596859728048
17138139 8 17486201507649284255
17492 54 18264227931565643916
17818456 19 17700988652036599937
19026451 147 18272371932087632830
19315092 285 18130782344064321907
19319366 153 18271235144734035839
20511986 3 17846770841431535581
20567600 347 18338228379302421346
20691752 17 18260550034942314397
20764821 26 18265611177033505187
20775438 99 18337940312073949291
20775530 9 18048038467198008422
21285901 2 17822001030532851293
23559900 14 18408602543950293683
238 59 18336562580742456058
239999 70 17917716832880813548
3004659 81 17918000464400488053
4340502 62 17773872184937831728
444735 86 17771609416368601063
460360 51 18191580853309031449
46194498 28 18040430036387320621
463206 1 18264499394362255322
484989 97 18192168189633351498
6669772 16 18270954774054082424
70251023 43 18191026707700859555

> <PUBCHEM_SHAPE_MULTIPOLES>
590.28
10.57
4.89
1.59
24.04
4.72
-0.01
2.36
-2.83
-6.84
0.8
-0.9
-0.4
-0.58

> <PUBCHEM_SHAPE_SELFOVERLAP>
1301.656

> <PUBCHEM_SHAPE_VOLUME>
317.3

> <PUBCHEM_COORDINATE_TYPE>
2
5
10

$$$$
