7134300
  -OEChem-12032416353D

 52 54  0     1  0  0  0  0  0999 V2000
    2.2059   -1.3557   -1.1432 O   0  0  0  0  0  0  0  0  0  0  0  0
    3.7959    0.2249    1.8252 O   0  0  0  0  0  0  0  0  0  0  0  0
    4.5725    1.8343   -1.0060 O   0  0  0  0  0  0  0  0  0  0  0  0
   -3.1349   -0.7062   -0.8986 O   0  0  0  0  0  0  0  0  0  0  0  0
    0.0185   -4.9749    1.4308 O   0  0  0  0  0  0  0  0  0  0  0  0
    2.0983    0.7682    0.3377 N   0  0  0  0  0  0  0  0  0  0  0  0
   -2.1284    1.1992   -0.0417 N   0  0  0  0  0  0  0  0  0  0  0  0
    0.7898   -2.6167    0.2072 N   0  0  0  0  0  0  0  0  0  0  0  0
   -4.5786    2.2134    0.4460 N   0  0  0  0  0  0  0  0  0  0  0  0
    1.3706   -6.1322   -0.0214 N   0  0  0  0  0  0  0  0  0  0  0  0
   -6.9300    0.8049   -0.1484 N   0  0  0  0  0  0  0  0  0  0  0  0
   -0.7637    0.7873   -0.2714 C   0  0  2  0  0  0  0  0  0  0  0  0
    1.2588   -0.3434    0.8020 C   0  0  1  0  0  0  0  0  0  0  0  0
   -0.2213    0.0128    0.9322 C   0  0  0  0  0  0  0  0  0  0  0  0
    0.1259    1.9947   -0.5565 C   0  0  0  0  0  0  0  0  0  0  0  0
    1.5745    1.5750   -0.7783 C   0  0  0  0  0  0  0  0  0  0  0  0
    1.4879   -1.4772   -0.1542 C   0  0  0  0  0  0  0  0  0  0  0  0
    3.3913    0.9188    0.8904 C   0  0  0  0  0  0  0  0  0  0  0  0
   -3.2136    0.4045   -0.3803 C   0  0  0  0  0  0  0  0  0  0  0  0
    0.8226   -3.8406   -0.5606 C   0  0  2  0  0  0  0  0  0  0  0  0
    4.2579    1.9400    0.3116 C   0  0  0  0  0  0  0  0  0  0  0  0
   -4.5538    0.9829   -0.1035 C   0  0  0  0  0  0  0  0  0  0  0  0
   -0.2857   -3.8640   -1.6011 C   0  0  0  0  0  0  0  0  0  0  0  0
    4.8536    3.0504    0.8630 C   0  0  0  0  0  0  0  0  0  0  0  0
    0.6907   -5.0101    0.4028 C   0  0  0  0  0  0  0  0  0  0  0  0
    5.5810    3.6667   -0.1830 C   0  0  0  0  0  0  0  0  0  0  0  0
    5.3779    2.8891   -1.2991 C   0  0  0  0  0  0  0  0  0  0  0  0
   -5.7087    0.2911   -0.3954 C   0  0  0  0  0  0  0  0  0  0  0  0
   -5.7999    2.7273    0.6928 C   0  0  0  0  0  0  0  0  0  0  0  0
   -6.9549    2.0354    0.4010 C   0  0  0  0  0  0  0  0  0  0  0  0
   -0.7541    0.1275   -1.1486 H   0  0  0  0  0  0  0  0  0  0  0  0
    1.6163   -0.6826    1.7822 H   0  0  0  0  0  0  0  0  0  0  0  0
   -0.3345    0.6463    1.8240 H   0  0  0  0  0  0  0  0  0  0  0  0
   -0.8502   -0.8638    1.1220 H   0  0  0  0  0  0  0  0  0  0  0  0
   -0.2400    2.5345   -1.4384 H   0  0  0  0  0  0  0  0  0  0  0  0
    0.0766    2.6994    0.2843 H   0  0  0  0  0  0  0  0  0  0  0  0
    2.1653    2.4838   -0.9134 H   0  0  0  0  0  0  0  0  0  0  0  0
    1.6674    0.9921   -1.7003 H   0  0  0  0  0  0  0  0  0  0  0  0
   -2.2936    2.0890    0.4209 H   0  0  0  0  0  0  0  0  0  0  0  0
    0.2528   -2.6198    1.0691 H   0  0  0  0  0  0  0  0  0  0  0  0
    1.7926   -3.8977   -1.0689 H   0  0  0  0  0  0  0  0  0  0  0  0
   -0.2590   -4.7912   -2.1831 H   0  0  0  0  0  0  0  0  0  0  0  0
   -0.1921   -3.0212   -2.2944 H   0  0  0  0  0  0  0  0  0  0  0  0
   -1.2730   -3.7970   -1.1295 H   0  0  0  0  0  0  0  0  0  0  0  0
    4.7751    3.3778    1.8899 H   0  0  0  0  0  0  0  0  0  0  0  0
    6.1782    4.5655   -0.1301 H   0  0  0  0  0  0  0  0  0  0  0  0
    5.7173    2.9471   -2.3229 H   0  0  0  0  0  0  0  0  0  0  0  0
   -5.7076   -0.6987   -0.8364 H   0  0  0  0  0  0  0  0  0  0  0  0
    1.3550   -6.9874    0.5243 H   0  0  0  0  0  0  0  0  0  0  0  0
    1.9055   -6.1527   -0.8838 H   0  0  0  0  0  0  0  0  0  0  0  0
   -5.8206    3.7160    1.1342 H   0  0  0  0  0  0  0  0  0  0  0  0
   -7.9358    2.4490    0.5997 H   0  0  0  0  0  0  0  0  0  0  0  0
  1 17  2  0  0  0  0
  2 18  2  0  0  0  0
  3 21  1  0  0  0  0
  3 27  1  0  0  0  0
  4 19  2  0  0  0  0
  5 25  2  0  0  0  0
  6 13  1  0  0  0  0
  6 16  1  0  0  0  0
  6 18  1  0  0  0  0
  7 12  1  0  0  0  0
  7 19  1  0  0  0  0
  7 39  1  0  0  0  0
  8 17  1  0  0  0  0
  8 20  1  0  0  0  0
  8 40  1  0  0  0  0
  9 22  2  0  0  0  0
  9 29  1  0  0  0  0
 10 25  1  0  0  0  0
 10 49  1  0  0  0  0
 10 50  1  0  0  0  0
 11 28  2  0  0  0  0
 11 30  1  0  0  0  0
 12 14  1  0  0  0  0
 12 15  1  0  0  0  0
 12 31  1  0  0  0  0
 13 14  1  0  0  0  0
 13 17  1  0  0  0  0
 13 32  1  0  0  0  0
 14 33  1  0  0  0  0
 14 34  1  0  0  0  0
 15 16  1  0  0  0  0
 15 35  1  0  0  0  0
 15 36  1  0  0  0  0
 16 37  1  0  0  0  0
 16 38  1  0  0  0  0
 18 21  1  0  0  0  0
 19 22  1  0  0  0  0
 20 23  1  0  0  0  0
 20 25  1  0  0  0  0
 20 41  1  0  0  0  0
 21 24  2  0  0  0  0
 22 28  1  0  0  0  0
 23 42  1  0  0  0  0
 23 43  1  0  0  0  0
 23 44  1  0  0  0  0
 24 26  1  0  0  0  0
 24 45  1  0  0  0  0
 26 27  2  0  0  0  0
 26 46  1  0  0  0  0
 27 47  1  0  0  0  0
 28 48  1  0  0  0  0
 29 30  2  0  0  0  0
 29 51  1  0  0  0  0
 30 52  1  0  0  0  0
M  END
> <PUBCHEM_COMPOUND_CID>
7134300

> <PUBCHEM_CONFORMER_RMSD>
1

> <PUBCHEM_CONFORMER_DIVERSEORDER>
1
40
24
51
36
31
22
92
52
9
16
84
66
79
45
15
30
69
55
77
86
73
56
25
50
19
33
74
14
59
82
61
6
57
2
78
60
80
49
29
85
75
68
58
41
18
83
44
12
62
10
39
26
76
46
5
70
11
7
47
48
72
90
23
42
63
67
91
8
17
54
13
35
87
53
34
71
93
20
88
28
3
65
81
32
38
27
43
89
64
21
37
4

> <PUBCHEM_MMFF94_PARTIAL_CHARGES>
37
1 -0.57
10 -0.8
11 -0.62
12 0.3
13 0.36
16 0.3
17 0.57
18 0.71
19 0.54
2 -0.57
20 0.36
21 0.05
22 0.4
24 -0.15
25 0.57
26 -0.15
27 -0.01
28 0.16
29 0.16
3 -0.28
30 0.16
39 0.37
4 -0.57
40 0.37
45 0.15
46 0.15
47 0.15
48 0.15
49 0.37
5 -0.57
50 0.37
51 0.15
52 0.15
6 -0.66
7 -0.73
8 -0.73
9 -0.62

> <PUBCHEM_EFFECTIVE_ROTOR_COUNT>
10.2

> <PUBCHEM_PHARMACOPHORE_FEATURES>
13
1 1 acceptor
1 10 donor
1 11 acceptor
1 2 acceptor
1 3 acceptor
1 4 acceptor
1 5 acceptor
1 7 donor
1 8 donor
1 9 acceptor
5 3 21 24 26 27 rings
6 6 12 13 14 15 16 rings
6 9 11 22 28 29 30 rings

> <PUBCHEM_HEAVY_ATOM_COUNT>
30

> <PUBCHEM_ATOM_DEF_STEREO_COUNT>
3

> <PUBCHEM_ATOM_UDEF_STEREO_COUNT>
0

> <PUBCHEM_BOND_DEF_STEREO_COUNT>
0

> <PUBCHEM_BOND_UDEF_STEREO_COUNT>
0

> <PUBCHEM_ISOTOPIC_ATOM_COUNT>
0

> <PUBCHEM_COMPONENT_COUNT>
1

> <PUBCHEM_CACTVS_TAUTO_COUNT>
8

> <PUBCHEM_CONFORMER_ID>
006CDC5C00000001

> <PUBCHEM_MMFF94_ENERGY>
68.409

> <PUBCHEM_FEATURE_SELFOVERLAP>
65.981

> <PUBCHEM_SHAPE_FINGERPRINT>
10411042 1 17546446678798046107
10721379 63 18126298440687439622
10906281 52 18187094965857874513
12293681 160 17846224383561843704
12788726 201 17907281497087478982
13757389 114 18120668073918584012
13955234 65 18265619775541655467
14790565 3 18411699919460983724
14849402 71 18266177227668503506
14863182 85 18334581217607487316
15664445 248 17912941495052105822
15927050 60 18342174505018066182
17980427 23 17386852883837394901
18365409 1 18124594438768391463
19301676 85 18126592054550875270
19319366 153 18343297050828886293
19427546 62 18410293648620967096
20505436 4 17895473747970947248
21033648 29 18198899395560611256
21424621 283 18342174530956622544
239999 70 17987800687709536135
27425 322 18271525398344364220
3178227 256 18338233739901764994
3421961 26 18123185693711135611
38695281 34 18410014372472326869
4058900 60 18340779181843724609
4073 2 18409453583968474435
4461854 278 18120674662846971395
504843 32 18115865385389636815
59755656 520 18338509854880577188
6058803 2 18057599859906396337
621550 34 18261669268907446493
77188 2 17690280404771160502
9658208 31 18199744924671416600

> <PUBCHEM_SHAPE_MULTIPOLES>
558.15
14
6.98
1.18
17.41
15.02
0.03
-22.25
0.22
-5.04
0.26
-0.9
0.32
-1.13

> <PUBCHEM_SHAPE_SELFOVERLAP>
1185.178

> <PUBCHEM_SHAPE_VOLUME>
307.2

> <PUBCHEM_COORDINATE_TYPE>
2
5
10

$$$$
