25338410
  -OEChem-12032416213D

 45 48  0     1  0  0  0  0  0999 V2000
    5.9040    3.9148    0.2346 Cl  0  0  0  0  0  0  0  0  0  0  0  0
    2.0627   -3.0571   -0.6323 O   0  0  0  0  0  0  0  0  0  0  0  0
   -4.1890   -0.2783   -1.7363 O   0  0  0  0  0  0  0  0  0  0  0  0
   -0.9528   -2.8876    1.1829 N   0  0  1  0  0  0  0  0  0  0  0  0
   -2.8415   -0.8138    0.0734 N   0  0  0  0  0  0  0  0  0  0  0  0
    1.3098   -1.0396   -0.0163 N   0  0  0  0  0  0  0  0  0  0  0  0
    3.1741   -2.2048   -0.6493 N   0  0  0  0  0  0  0  0  0  0  0  0
   -3.0153    1.7237    0.9087 N   0  0  0  0  0  0  0  0  0  0  0  0
   -2.6416   -2.2016   -0.2703 C   0  0  1  0  0  0  0  0  0  0  0  0
   -0.3322   -2.9901   -0.1517 C   0  0  1  0  0  0  0  0  0  0  0  0
   -1.3810   -2.3967   -1.1127 C   0  0  0  0  0  0  0  0  0  0  0  0
   -2.3943   -3.0489    0.9686 C   0  0  0  0  0  0  0  0  0  0  0  0
    1.0073   -2.2918   -0.2497 C   0  0  0  0  0  0  0  0  0  0  0  0
   -0.4318   -3.8616    2.1345 C   0  0  0  0  0  0  0  0  0  0  0  0
   -3.6099    0.0414   -0.7014 C   0  0  0  0  0  0  0  0  0  0  0  0
    2.6496   -1.0341   -0.2747 C   0  0  0  0  0  0  0  0  0  0  0  0
   -3.6956    1.4463   -0.2260 C   0  0  0  0  0  0  0  0  0  0  0  0
    3.4358    0.1592   -0.1505 C   0  0  0  0  0  0  0  0  0  0  0  0
   -4.4398    2.3780   -0.9318 C   0  0  0  0  0  0  0  0  0  0  0  0
    2.8318    1.3533    0.2434 C   0  0  0  0  0  0  0  0  0  0  0  0
    4.8031    0.1265   -0.4248 C   0  0  0  0  0  0  0  0  0  0  0  0
   -4.4887    3.6781   -0.4414 C   0  0  0  0  0  0  0  0  0  0  0  0
   -3.0864    2.9978    1.3551 C   0  0  0  0  0  0  0  0  0  0  0  0
    3.5950    2.5148    0.3626 C   0  0  0  0  0  0  0  0  0  0  0  0
    5.5663    1.2879   -0.3058 C   0  0  0  0  0  0  0  0  0  0  0  0
   -3.8018    4.0022    0.7233 C   0  0  0  0  0  0  0  0  0  0  0  0
    4.9623    2.4820    0.0879 C   0  0  0  0  0  0  0  0  0  0  0  0
   -3.5262   -2.5535   -0.8130 H   0  0  0  0  0  0  0  0  0  0  0  0
   -0.1972   -4.0473   -0.4226 H   0  0  0  0  0  0  0  0  0  0  0  0
   -1.0557   -1.4654   -1.5908 H   0  0  0  0  0  0  0  0  0  0  0  0
   -1.5830   -3.1228   -1.9103 H   0  0  0  0  0  0  0  0  0  0  0  0
   -2.9747   -2.7129    1.8345 H   0  0  0  0  0  0  0  0  0  0  0  0
   -2.6469   -4.0965    0.7585 H   0  0  0  0  0  0  0  0  0  0  0  0
   -2.3571   -0.4433    0.8865 H   0  0  0  0  0  0  0  0  0  0  0  0
    0.6397   -3.7065    2.3000 H   0  0  0  0  0  0  0  0  0  0  0  0
   -0.5819   -4.8941    1.7994 H   0  0  0  0  0  0  0  0  0  0  0  0
   -0.9222   -3.7424    3.1068 H   0  0  0  0  0  0  0  0  0  0  0  0
   -4.9764    2.1261   -1.8401 H   0  0  0  0  0  0  0  0  0  0  0  0
    1.7688    1.4113    0.4639 H   0  0  0  0  0  0  0  0  0  0  0  0
    5.3080   -0.7852   -0.7342 H   0  0  0  0  0  0  0  0  0  0  0  0
   -5.0611    4.4375   -0.9655 H   0  0  0  0  0  0  0  0  0  0  0  0
    3.1113    3.4383    0.6703 H   0  0  0  0  0  0  0  0  0  0  0  0
    6.6307    1.2481   -0.5229 H   0  0  0  0  0  0  0  0  0  0  0  0
   -2.5333    3.1989    2.2666 H   0  0  0  0  0  0  0  0  0  0  0  0
   -3.8258    5.0092    1.1239 H   0  0  0  0  0  0  0  0  0  0  0  0
  1 27  1  0  0  0  0
  2  7  1  0  0  0  0
  2 13  1  0  0  0  0
  3 15  2  0  0  0  0
  4 10  1  0  0  0  0
  4 12  1  0  0  0  0
  4 14  1  0  0  0  0
  5  9  1  0  0  0  0
  5 15  1  0  0  0  0
  5 34  1  0  0  0  0
  6 13  2  0  0  0  0
  6 16  1  0  0  0  0
  7 16  2  0  0  0  0
  8 17  1  0  0  0  0
  8 23  2  0  0  0  0
  9 11  1  0  0  0  0
  9 12  1  0  0  0  0
  9 28  1  0  0  0  0
 10 11  1  0  0  0  0
 10 13  1  0  0  0  0
 10 29  1  0  0  0  0
 11 30  1  0  0  0  0
 11 31  1  0  0  0  0
 12 32  1  0  0  0  0
 12 33  1  0  0  0  0
 14 35  1  0  0  0  0
 14 36  1  0  0  0  0
 14 37  1  0  0  0  0
 15 17  1  0  0  0  0
 16 18  1  0  0  0  0
 17 19  2  0  0  0  0
 18 20  2  0  0  0  0
 18 21  1  0  0  0  0
 19 22  1  0  0  0  0
 19 38  1  0  0  0  0
 20 24  1  0  0  0  0
 20 39  1  0  0  0  0
 21 25  2  0  0  0  0
 21 40  1  0  0  0  0
 22 26  2  0  0  0  0
 22 41  1  0  0  0  0
 23 26  1  0  0  0  0
 23 44  1  0  0  0  0
 24 27  2  0  0  0  0
 24 42  1  0  0  0  0
 25 27  1  0  0  0  0
 25 43  1  0  0  0  0
 26 45  1  0  0  0  0
M  END
> <PUBCHEM_COMPOUND_CID>
25338410

> <PUBCHEM_CONFORMER_RMSD>
0.8

> <PUBCHEM_CONFORMER_DIVERSEORDER>
1
69
64
17
71
87
52
9
81
24
88
47
74
63
3
11
82
36
62
40
54
83
38
31
80
26
4
78
77
53
68
57
34
49
46
37
13
43
73
85
50
86
12
60
7
10
76
33
15
20
23
58
27
72
6
32
16
67
45
21
48
59
70
19
41
2
22
18
44
79
39
29
75
56
51
35
8
42
30
25
84
65
14
66
5
28
55
61

> <PUBCHEM_MMFF94_PARTIAL_CHARGES>
35
1 -0.18
10 0.45
12 0.27
13 0.3
14 0.27
15 0.54
16 0.46
17 0.4
18 0.05
19 -0.15
2 -0.02
20 -0.15
21 -0.15
22 -0.15
23 0.16
24 -0.15
25 -0.15
26 -0.15
27 0.18
3 -0.57
34 0.37
38 0.15
39 0.15
4 -0.81
40 0.15
41 0.15
42 0.15
43 0.15
44 0.15
45 0.15
5 -0.73
6 -0.57
7 -0.41
8 -0.62
9 0.3

> <PUBCHEM_EFFECTIVE_ROTOR_COUNT>
6

> <PUBCHEM_PHARMACOPHORE_FEATURES>
9
1 3 acceptor
1 4 cation
1 5 donor
1 8 acceptor
3 6 7 16 cation
5 2 6 7 13 16 rings
5 4 9 10 11 12 rings
6 18 20 21 24 25 27 rings
6 8 17 19 22 23 26 rings

> <PUBCHEM_HEAVY_ATOM_COUNT>
27

> <PUBCHEM_ATOM_DEF_STEREO_COUNT>
2

> <PUBCHEM_ATOM_UDEF_STEREO_COUNT>
0

> <PUBCHEM_BOND_DEF_STEREO_COUNT>
0

> <PUBCHEM_BOND_UDEF_STEREO_COUNT>
0

> <PUBCHEM_ISOTOPIC_ATOM_COUNT>
0

> <PUBCHEM_COMPONENT_COUNT>
1

> <PUBCHEM_CACTVS_TAUTO_COUNT>
2

> <PUBCHEM_CONFORMER_ID>
0182A22A00000001

> <PUBCHEM_MMFF94_ENERGY>
56.1855

> <PUBCHEM_FEATURE_SELFOVERLAP>
45.672

> <PUBCHEM_SHAPE_FINGERPRINT>
10291535 26 18193274324057792002
10675989 125 18124032321527565184
10937287 8 18337390431462357803
11059048 146 18341629100164154636
11297750 10 16599556581037248211
11408170 253 17761507180948228740
12107183 9 18189319213962537978
12788726 201 18263351663642919635
14251764 38 18411697664708154818
14251764 75 18270688537199974937
14347329 18 18341327907509202456
14848178 96 18339356340809383437
15142526 21 18190183386919915051
155225 5 18268710687596414080
16067690 210 17686875608249753824
16112460 7 18265893545589513176
16992787 43 18340480154538344909
20398071 114 18412258441318726401
21033648 144 17269195352110030540
21859007 373 18057034930184652592
21860390 5 17697881371445238375
23379529 103 11779873985246047949
2838139 119 18412821374329558222
312425 83 17846502504237557798
325973 47 18051691341226066744
376196 1 18411417272068867254
4144715 1 18334303102182107458
437795 96 17407382003106154656
474 4 17977946779234914483
4756261 7 17983892053687000921
5047190 92 18411704262395749617
5048184 11 18340488850792421673
550186 7 17983873443071779260
59124914 9 18191589644669138754
5951187 136 17625828163001721997
6036956 94 18120374517120112029
7288768 16 18186522098819217971
9981440 41 18338792424652280050

> <PUBCHEM_SHAPE_MULTIPOLES>
520.87
12.5
6.48
1.22
11.5
1.13
0.31
16.06
-1.65
-3.45
1.94
-1.15
-0.63
0.68

> <PUBCHEM_SHAPE_SELFOVERLAP>
1123.005

> <PUBCHEM_SHAPE_VOLUME>
288.9

> <PUBCHEM_COORDINATE_TYPE>
2
5
10

$$$$
