51138087
  -OEChem-12032416143D

 64 68  0     1  0  0  0  0  0999 V2000
   -3.0293    2.5352   -1.1159 O   0  0  0  0  0  0  0  0  0  0  0  0
   -1.9213   -0.2610   -0.4532 N   0  0  0  0  0  0  0  0  0  0  0  0
   -4.0848    1.5711    0.7214 N   0  0  0  0  0  0  0  0  0  0  0  0
    2.8792    0.8379    0.6657 N   0  0  0  0  0  0  0  0  0  0  0  0
    6.5248    0.7020   -0.1713 N   0  0  0  0  0  0  0  0  0  0  0  0
    4.7535    0.3419   -1.4614 N   0  0  0  0  0  0  0  0  0  0  0  0
   -6.2845    1.4157   -0.2798 C   0  0  0  0  0  0  0  0  0  0  0  0
   -7.1689    0.3859    0.3601 C   0  0  0  0  0  0  0  0  0  0  0  0
   -7.7642    1.6484   -0.1908 C   0  0  0  0  0  0  0  0  0  0  0  0
   -5.3673    2.2209    0.5763 C   0  0  0  0  0  0  0  0  0  0  0  0
   -1.4094   -1.4219    0.2875 C   0  0  2  0  0  0  0  0  0  0  0  0
   -1.8060    1.0083    0.2504 C   0  0  1  0  0  0  0  0  0  0  0  0
   -0.5595    1.7781   -0.1818 C   0  0  0  0  0  0  0  0  0  0  0  0
    0.0932   -1.4155    0.5864 C   0  0  0  0  0  0  0  0  0  0  0  0
    0.9388   -0.2709    0.5160 C   0  0  0  0  0  0  0  0  0  0  0  0
    0.7223    1.1141    0.1955 C   0  0  0  0  0  0  0  0  0  0  0  0
   -1.8390   -2.6391   -0.5512 C   0  0  0  0  0  0  0  0  0  0  0  0
   -3.0243    1.7870   -0.1420 C   0  0  0  0  0  0  0  0  0  0  0  0
    2.2974   -0.3971    0.8285 C   0  0  0  0  0  0  0  0  0  0  0  0
   -3.3235   -2.9815   -0.3918 C   0  0  0  0  0  0  0  0  0  0  0  0
    1.9414    1.7543    0.2914 C   0  0  0  0  0  0  0  0  0  0  0  0
    0.6989   -2.6131    1.0451 C   0  0  0  0  0  0  0  0  0  0  0  0
    2.8848   -1.5967    1.2338 C   0  0  0  0  0  0  0  0  0  0  0  0
    4.2779    1.1448    0.8762 C   0  0  0  0  0  0  0  0  0  0  0  0
    2.0556   -2.7049    1.3498 C   0  0  0  0  0  0  0  0  0  0  0  0
   -3.6441   -4.2320   -1.2141 C   0  0  0  0  0  0  0  0  0  0  0  0
   -4.2417   -1.8346   -0.8162 C   0  0  0  0  0  0  0  0  0  0  0  0
    5.1615    0.7240   -0.2716 C   0  0  0  0  0  0  0  0  0  0  0  0
    7.0174    0.2788   -1.3736 C   0  0  0  0  0  0  0  0  0  0  0  0
    7.3154    1.0568    0.9837 C   0  0  0  0  0  0  0  0  0  0  0  0
    5.9055    0.0629   -2.1531 C   0  0  0  0  0  0  0  0  0  0  0  0
   -5.8768    1.2056   -1.2614 H   0  0  0  0  0  0  0  0  0  0  0  0
   -7.3462   -0.5338   -0.1838 H   0  0  0  0  0  0  0  0  0  0  0  0
   -7.1403    0.2695    1.4364 H   0  0  0  0  0  0  0  0  0  0  0  0
   -8.1339    2.3813    0.5158 H   0  0  0  0  0  0  0  0  0  0  0  0
   -8.3420    1.5762   -1.1041 H   0  0  0  0  0  0  0  0  0  0  0  0
   -5.7700    2.3694    1.5842 H   0  0  0  0  0  0  0  0  0  0  0  0
   -5.2175    3.2075    0.1244 H   0  0  0  0  0  0  0  0  0  0  0  0
   -1.9144   -1.4748    1.2618 H   0  0  0  0  0  0  0  0  0  0  0  0
   -1.8050    0.8751    1.3406 H   0  0  0  0  0  0  0  0  0  0  0  0
   -0.5516    1.9363   -1.2695 H   0  0  0  0  0  0  0  0  0  0  0  0
   -0.5850    2.7802    0.2684 H   0  0  0  0  0  0  0  0  0  0  0  0
   -1.5024   -0.2076   -1.3809 H   0  0  0  0  0  0  0  0  0  0  0  0
   -3.9809    0.9075    1.4835 H   0  0  0  0  0  0  0  0  0  0  0  0
   -1.2843   -3.5412   -0.2779 H   0  0  0  0  0  0  0  0  0  0  0  0
   -1.5939   -2.4808   -1.6120 H   0  0  0  0  0  0  0  0  0  0  0  0
   -3.5280   -3.2155    0.6608 H   0  0  0  0  0  0  0  0  0  0  0  0
    2.2049    2.7903    0.1229 H   0  0  0  0  0  0  0  0  0  0  0  0
    0.1021   -3.5076    1.2079 H   0  0  0  0  0  0  0  0  0  0  0  0
    3.9400   -1.6710    1.4732 H   0  0  0  0  0  0  0  0  0  0  0  0
    4.5850    0.6595    1.8093 H   0  0  0  0  0  0  0  0  0  0  0  0
    4.3679    2.2274    1.0252 H   0  0  0  0  0  0  0  0  0  0  0  0
    2.4672   -3.6508    1.6918 H   0  0  0  0  0  0  0  0  0  0  0  0
   -4.6900   -4.5284   -1.0807 H   0  0  0  0  0  0  0  0  0  0  0  0
   -3.4752   -4.0599   -2.2827 H   0  0  0  0  0  0  0  0  0  0  0  0
   -3.0199   -5.0764   -0.9028 H   0  0  0  0  0  0  0  0  0  0  0  0
   -5.2747   -2.1906   -0.9083 H   0  0  0  0  0  0  0  0  0  0  0  0
   -4.2701   -1.0486   -0.0603 H   0  0  0  0  0  0  0  0  0  0  0  0
   -3.9598   -1.4154   -1.7874 H   0  0  0  0  0  0  0  0  0  0  0  0
    8.0755    0.1701   -1.5673 H   0  0  0  0  0  0  0  0  0  0  0  0
    7.0410    2.0668    1.2980 H   0  0  0  0  0  0  0  0  0  0  0  0
    7.1103    0.3340    1.7772 H   0  0  0  0  0  0  0  0  0  0  0  0
    8.3762    1.0291    0.7217 H   0  0  0  0  0  0  0  0  0  0  0  0
    5.8758   -0.2794   -3.1772 H   0  0  0  0  0  0  0  0  0  0  0  0
  1 18  2  0  0  0  0
  2 11  1  0  0  0  0
  2 12  1  0  0  0  0
  2 43  1  0  0  0  0
  3 10  1  0  0  0  0
  3 18  1  0  0  0  0
  3 44  1  0  0  0  0
  4 19  1  0  0  0  0
  4 21  1  0  0  0  0
  4 24  1  0  0  0  0
  5 28  1  0  0  0  0
  5 29  1  0  0  0  0
  5 30  1  0  0  0  0
  6 28  2  0  0  0  0
  6 31  1  0  0  0  0
  7  8  1  0  0  0  0
  7  9  1  0  0  0  0
  7 10  1  0  0  0  0
  7 32  1  0  0  0  0
  8  9  1  0  0  0  0
  8 33  1  0  0  0  0
  8 34  1  0  0  0  0
  9 35  1  0  0  0  0
  9 36  1  0  0  0  0
 10 37  1  0  0  0  0
 10 38  1  0  0  0  0
 11 14  1  0  0  0  0
 11 17  1  0  0  0  0
 11 39  1  0  0  0  0
 12 13  1  0  0  0  0
 12 18  1  0  0  0  0
 12 40  1  0  0  0  0
 13 16  1  0  0  0  0
 13 41  1  0  0  0  0
 13 42  1  0  0  0  0
 14 15  2  0  0  0  0
 14 22  1  0  0  0  0
 15 16  1  0  0  0  0
 15 19  1  0  0  0  0
 16 21  2  0  0  0  0
 17 20  1  0  0  0  0
 17 45  1  0  0  0  0
 17 46  1  0  0  0  0
 19 23  2  0  0  0  0
 20 26  1  0  0  0  0
 20 27  1  0  0  0  0
 20 47  1  0  0  0  0
 21 48  1  0  0  0  0
 22 25  2  0  0  0  0
 22 49  1  0  0  0  0
 23 25  1  0  0  0  0
 23 50  1  0  0  0  0
 24 28  1  0  0  0  0
 24 51  1  0  0  0  0
 24 52  1  0  0  0  0
 25 53  1  0  0  0  0
 26 54  1  0  0  0  0
 26 55  1  0  0  0  0
 26 56  1  0  0  0  0
 27 57  1  0  0  0  0
 27 58  1  0  0  0  0
 27 59  1  0  0  0  0
 29 31  2  0  0  0  0
 29 60  1  0  0  0  0
 30 61  1  0  0  0  0
 30 62  1  0  0  0  0
 30 63  1  0  0  0  0
 31 64  1  0  0  0  0
M  END
> <PUBCHEM_COMPOUND_CID>
51138087

> <PUBCHEM_CONFORMER_RMSD>
1.2

> <PUBCHEM_CONFORMER_DIVERSEORDER>
1
30
13
26
46
60
74
25
63
66
28
50
9
44
4
53
77
18
19
68
36
32
55
15
35
42
65
27
64
12
43
45
57
37
41
5
8
71
62
23
33
58
6
52
49
70
76
69
73
72
47
20
39
7
78
67
21
38
61
56
3
75
59
22
54
16
29
11
31
2
14
17
51
10
48
79
24
40
34

> <PUBCHEM_MMFF94_PARTIAL_CHARGES>
39
1 -0.57
10 0.4
11 0.41
12 0.33
13 0.18
14 -0.14
16 -0.18
18 0.57
19 -0.15
2 -0.9
21 -0.3
22 -0.15
23 -0.15
24 0.44
25 -0.15
28 0.01
29 -0.3
3 -0.73
30 0.26
31 0.08
32 0.1
33 0.1
34 0.1
35 0.1
36 0.1
4 0.05
43 0.36
44 0.37
48 0.15
49 0.15
5 0.05
50 0.15
53 0.15
6 -0.57
60 0.15
64 0.15
7 -0.19
8 -0.2
9 -0.2

> <PUBCHEM_EFFECTIVE_ROTOR_COUNT>
9.4

> <PUBCHEM_PHARMACOPHORE_FEATURES>
11
1 1 acceptor
1 2 cation
1 2 donor
1 3 donor
1 4 cation
3 20 26 27 hydrophobe
3 5 6 28 cation
5 4 15 16 19 21 rings
5 5 6 28 29 31 rings
6 14 15 19 22 23 25 rings
7 2 11 12 13 14 15 16 rings

> <PUBCHEM_HEAVY_ATOM_COUNT>
31

> <PUBCHEM_ATOM_DEF_STEREO_COUNT>
2

> <PUBCHEM_ATOM_UDEF_STEREO_COUNT>
0

> <PUBCHEM_BOND_DEF_STEREO_COUNT>
0

> <PUBCHEM_BOND_UDEF_STEREO_COUNT>
0

> <PUBCHEM_ISOTOPIC_ATOM_COUNT>
0

> <PUBCHEM_COMPONENT_COUNT>
1

> <PUBCHEM_CACTVS_TAUTO_COUNT>
2

> <PUBCHEM_CONFORMER_ID>
030C4E2700000001

> <PUBCHEM_MMFF94_ENERGY>
62.6004

> <PUBCHEM_FEATURE_SELFOVERLAP>
55.954

> <PUBCHEM_SHAPE_FINGERPRINT>
10050765 1 18197213874051983800
10165383 225 18335984194434362880
10190108 129 18189634889389462259
11007060 377 18201445753079463841
11135926 11 18260814995374594407
11136131 41 18042960987421600667
12166972 35 12535336896613015483
12838862 33 18336248094505235537
12954195 1 18343305893945236422
13540713 5 18189597411283466466
13617811 41 18186809049811348244
14294032 229 18187642462176152013
1454969 45 18113341894941040277
14790565 3 18052826840500594456
14840074 17 18187927245084217149
15131766 46 15287359624450380958
15183329 4 17988932128556362444
15629462 23 16702037330885770625
15849732 13 18113343007221506141
18608769 82 18408041836159549177
19319366 153 18040714710450327234
21236236 1 18410853308608035562
21344244 181 17988653943583123806
22122407 14 14923931389138931734
22311459 1 18408885118149059880
22393880 68 18341888628057650418
23559900 14 18059850709567335217
23576562 1 18190471630201335861
25147074 1 18187914076282218034
350125 39 18409162208380093849
4073 2 18201719591709537228
45377200 153 17203316859028365519
5486654 2 18341891862632696113
563151 40 18335989717978577195
59755656 215 18272656726994279749
59755656 520 18412542107261176845
6669772 16 18272092634717260359

> <PUBCHEM_SHAPE_MULTIPOLES>
607.19
18.36
3.65
1.31
2.12
3.55
0.35
-10.52
4.07
-5.58
0.31
1.86
0.39
-1.3

> <PUBCHEM_SHAPE_SELFOVERLAP>
1304.163

> <PUBCHEM_SHAPE_VOLUME>
336.2

> <PUBCHEM_COORDINATE_TYPE>
2
5
10

$$$$
