45784323
  -OEChem-12032416243D

 46 49  0     1  0  0  0  0  0999 V2000
   -2.5194   -0.8910   -0.3347 N   0  0  1  0  0  0  0  0  0  0  0  0
   -6.3550    0.9356   -0.2119 N   0  0  0  0  0  0  0  0  0  0  0  0
    2.1972   -0.7365   -1.1649 N   0  0  0  0  0  0  0  0  0  0  0  0
    1.4767   -0.2132    0.8715 N   0  0  0  0  0  0  0  0  0  0  0  0
    7.9508    0.9557   -0.5910 N   0  0  0  0  0  0  0  0  0  0  0  0
   -3.6190   -0.0463    0.1258 C   0  0  0  0  0  0  0  0  0  0  0  0
   -0.2260   -1.2061   -0.7103 C   0  0  2  0  0  0  0  0  0  0  0  0
   -1.3083   -0.1213   -0.6271 C   0  0  0  0  0  0  0  0  0  0  0  0
   -2.1099   -1.8703    0.6720 C   0  0  0  0  0  0  0  0  0  0  0  0
   -0.7733   -2.3680    0.1370 C   0  0  0  0  0  0  0  0  0  0  0  0
   -3.9876    0.9985   -0.9316 C   0  0  0  0  0  0  0  0  0  0  0  0
   -4.8420   -0.9044    0.4602 C   0  0  0  0  0  0  0  0  0  0  0  0
   -5.2098    1.8114   -0.4968 C   0  0  0  0  0  0  0  0  0  0  0  0
   -6.0363   -0.0293    0.8497 C   0  0  0  0  0  0  0  0  0  0  0  0
    1.1401   -0.7083   -0.2984 C   0  0  0  0  0  0  0  0  0  0  0  0
   -7.5280    1.7294    0.1532 C   0  0  0  0  0  0  0  0  0  0  0  0
    3.2886   -0.2253   -0.5106 C   0  0  0  0  0  0  0  0  0  0  0  0
    2.8133    0.0939    0.7582 C   0  0  0  0  0  0  0  0  0  0  0  0
    4.6104   -0.0209   -0.9078 C   0  0  0  0  0  0  0  0  0  0  0  0
    3.6950    0.6507    1.6998 C   0  0  0  0  0  0  0  0  0  0  0  0
    5.4743    0.5342    0.0420 C   0  0  0  0  0  0  0  0  0  0  0  0
    5.0268    0.8647    1.3232 C   0  0  0  0  0  0  0  0  0  0  0  0
    6.8415    0.7668   -0.3074 C   0  0  0  0  0  0  0  0  0  0  0  0
   -3.3198    0.4882    1.0395 H   0  0  0  0  0  0  0  0  0  0  0  0
   -0.1688   -1.5589   -1.7504 H   0  0  0  0  0  0  0  0  0  0  0  0
   -1.0858    0.6037    0.1672 H   0  0  0  0  0  0  0  0  0  0  0  0
   -1.3721    0.4158   -1.5795 H   0  0  0  0  0  0  0  0  0  0  0  0
   -1.9669   -1.4108    1.6584 H   0  0  0  0  0  0  0  0  0  0  0  0
   -2.8079   -2.7077    0.7670 H   0  0  0  0  0  0  0  0  0  0  0  0
   -0.9261   -3.2451   -0.5044 H   0  0  0  0  0  0  0  0  0  0  0  0
   -0.1041   -2.6650    0.9515 H   0  0  0  0  0  0  0  0  0  0  0  0
   -3.1638    1.7011   -1.1018 H   0  0  0  0  0  0  0  0  0  0  0  0
   -4.1992    0.5104   -1.8926 H   0  0  0  0  0  0  0  0  0  0  0  0
   -5.1163   -1.5311   -0.3993 H   0  0  0  0  0  0  0  0  0  0  0  0
   -4.6415   -1.5787    1.3004 H   0  0  0  0  0  0  0  0  0  0  0  0
   -5.4657    2.5028   -1.3090 H   0  0  0  0  0  0  0  0  0  0  0  0
   -4.9548    2.4200    0.3809 H   0  0  0  0  0  0  0  0  0  0  0  0
   -5.8231    0.4861    1.7957 H   0  0  0  0  0  0  0  0  0  0  0  0
   -6.8976   -0.6858    1.0238 H   0  0  0  0  0  0  0  0  0  0  0  0
   -8.3959    1.0809    0.3165 H   0  0  0  0  0  0  0  0  0  0  0  0
   -7.3624    2.3197    1.0617 H   0  0  0  0  0  0  0  0  0  0  0  0
   -7.7973    2.4140   -0.6588 H   0  0  0  0  0  0  0  0  0  0  0  0
    2.1813   -1.0730   -2.1186 H   0  0  0  0  0  0  0  0  0  0  0  0
    4.9426   -0.2831   -1.9071 H   0  0  0  0  0  0  0  0  0  0  0  0
    3.3568    0.9109    2.6977 H   0  0  0  0  0  0  0  0  0  0  0  0
    5.7102    1.2960    2.0523 H   0  0  0  0  0  0  0  0  0  0  0  0
  1  6  1  0  0  0  0
  1  8  1  0  0  0  0
  1  9  1  0  0  0  0
  2 13  1  0  0  0  0
  2 14  1  0  0  0  0
  2 16  1  0  0  0  0
  3 15  1  0  0  0  0
  3 17  1  0  0  0  0
  3 43  1  0  0  0  0
  4 15  2  0  0  0  0
  4 18  1  0  0  0  0
  5 23  3  0  0  0  0
  6 11  1  0  0  0  0
  6 12  1  0  0  0  0
  6 24  1  0  0  0  0
  7  8  1  0  0  0  0
  7 10  1  0  0  0  0
  7 15  1  0  0  0  0
  7 25  1  0  0  0  0
  8 26  1  0  0  0  0
  8 27  1  0  0  0  0
  9 10  1  0  0  0  0
  9 28  1  0  0  0  0
  9 29  1  0  0  0  0
 10 30  1  0  0  0  0
 10 31  1  0  0  0  0
 11 13  1  0  0  0  0
 11 32  1  0  0  0  0
 11 33  1  0  0  0  0
 12 14  1  0  0  0  0
 12 34  1  0  0  0  0
 12 35  1  0  0  0  0
 13 36  1  0  0  0  0
 13 37  1  0  0  0  0
 14 38  1  0  0  0  0
 14 39  1  0  0  0  0
 16 40  1  0  0  0  0
 16 41  1  0  0  0  0
 16 42  1  0  0  0  0
 17 18  2  0  0  0  0
 17 19  1  0  0  0  0
 18 20  1  0  0  0  0
 19 21  2  0  0  0  0
 19 44  1  0  0  0  0
 20 22  2  0  0  0  0
 20 45  1  0  0  0  0
 21 22  1  0  0  0  0
 21 23  1  0  0  0  0
 22 46  1  0  0  0  0
M  END
> <PUBCHEM_COMPOUND_CID>
45784323

> <PUBCHEM_CONFORMER_RMSD>
0.8

> <PUBCHEM_CONFORMER_DIVERSEORDER>
1
13
25
6
32
15
33
26
10
22
11
16
34
28
30
29
31
8
18
17
7
9
27
12
24
14
4
20
19
5
2
21
23
3

> <PUBCHEM_MMFF94_PARTIAL_CHARGES>
24
1 -0.81
13 0.27
14 0.27
15 0.01
16 0.27
17 -0.15
18 0.23
19 -0.15
2 -0.81
20 -0.15
21 0.07
22 -0.15
23 0.48
3 0.03
4 -0.57
43 0.27
44 0.15
45 0.15
46 0.15
5 -0.56
6 0.27
7 0.18
8 0.27
9 0.27

> <PUBCHEM_EFFECTIVE_ROTOR_COUNT>
4.2

> <PUBCHEM_PHARMACOPHORE_FEATURES>
9
1 1 cation
1 2 cation
1 3 donor
1 5 acceptor
3 3 4 15 cation
5 1 7 8 9 10 rings
5 3 4 15 17 18 rings
6 17 18 19 20 21 22 rings
6 2 6 11 12 13 14 rings

> <PUBCHEM_HEAVY_ATOM_COUNT>
23

> <PUBCHEM_ATOM_DEF_STEREO_COUNT>
1

> <PUBCHEM_ATOM_UDEF_STEREO_COUNT>
0

> <PUBCHEM_BOND_DEF_STEREO_COUNT>
0

> <PUBCHEM_BOND_UDEF_STEREO_COUNT>
0

> <PUBCHEM_ISOTOPIC_ATOM_COUNT>
0

> <PUBCHEM_COMPONENT_COUNT>
1

> <PUBCHEM_CACTVS_TAUTO_COUNT>
2

> <PUBCHEM_CONFORMER_ID>
02BA9D0300000001

> <PUBCHEM_MMFF94_ENERGY>
31.7749

> <PUBCHEM_FEATURE_SELFOVERLAP>
45.779

> <PUBCHEM_SHAPE_FINGERPRINT>
10 15 17967535662471473073
10411042 1 17831304175005794003
106641 1 17313109665929055825
10670039 82 17703795777619382704
10763959 59 18202560705083052424
11089746 13 15769779070005230346
11315181 36 17313105289473438627
11646440 116 18272377477338623545
12236239 1 17458059374566288250
12403259 415 17988358277506835547
12516196 113 12685093678925011479
12596602 18 16805599252932401017
12730499 353 18060424598971283935
13177829 20 16226053305255512105
13288520 33 10087922969615390415
13402501 40 18273210902483054833
13533116 47 18270678662985615842
13673619 4 7925910383181684687
13862211 1 9655573020041551837
14251764 18 17022904566292413127
14341114 328 17022904532333549601
14556957 393 14764358175108083921
14848160 23 10665225955967024113
14933364 13 18410576188474968224
15183329 4 15985105197483676837
15238133 3 18113905974180359444
15461852 350 18410849997821545871
15510800 12 7997682151647077689
15716309 27 12540697028540886828
17980427 23 17967254226223464815
200 152 14764633027192800138
20281389 69 18335136505856249280
20567600 254 18412821374608846839
20621476 66 18260832626737200604
20645477 56 18341891909407734047
21033648 29 18129649915828151896
21150785 3 13254796846023318360
21267235 1 14129050401731115162
21756936 100 18334572473355135815
21792961 116 17988372494903197796
221357 26 16630244736135041256
22224240 67 15213300850520100912
23198884 109 15770059436706402555
23559900 14 11383816178173142343
249999 5 18190458264458419107
2838139 119 17060340721205108777
2916195 48 18343297085309924499
293599 30 18412542111150000875
29717793 49 13901914427499322496
3411729 13 18260264106022085178
3545911 37 18131071553855242894
3663271 9 16805319981326615337
465052 167 11314310542428337338
5104073 3 13768745925518264876
5385378 56 18262800657724568443
5718773 13 7853268932149615513
5758199 1 16515405201291294032
58902169 19 15339113558965298792
59682541 35 18334023796495391945
59682541 52 16415483727220178044
59755656 520 18410567401062279367

> <PUBCHEM_SHAPE_MULTIPOLES>
448.42
20.11
1.68
1.15
0.77
0.4
-0.23
-12.72
-0.25
-2.12
-0.02
0.9
-0.1
0.82

> <PUBCHEM_SHAPE_SELFOVERLAP>
966.544

> <PUBCHEM_SHAPE_VOLUME>
243

> <PUBCHEM_COORDINATE_TYPE>
2
5
10

$$$$
