75368458
  -OEChem-12032416393D

 53 57  0     1  0  0  0  0  0999 V2000
    2.6621   -3.1856    0.8635 O   0  0  0  0  0  0  0  0  0  0  0  0
   -3.7173   -2.3749   -1.8675 O   0  0  0  0  0  0  0  0  0  0  0  0
   -5.6565    1.1465    1.9067 O   0  0  0  0  0  0  0  0  0  0  0  0
   -5.8703    3.0035    0.3855 O   0  0  0  0  0  0  0  0  0  0  0  0
    6.6632    2.0909   -1.6474 O   0  0  0  0  0  0  0  0  0  0  0  0
    0.5618   -2.2312    0.4189 N   0  0  0  0  0  0  0  0  0  0  0  0
    2.0948   -0.9836    1.4877 N   0  0  0  0  0  0  0  0  0  0  0  0
   -1.6843   -1.5458   -1.0675 N   0  0  0  0  0  0  0  0  0  0  0  0
   -0.1364   -1.0022    0.7563 C   0  0  1  0  0  0  0  0  0  0  0  0
    0.9677   -0.0903    1.2843 C   0  0  0  0  0  0  0  0  0  0  0  0
   -0.8791   -0.4664   -0.4634 C   0  0  0  0  0  0  0  0  0  0  0  0
   -0.1450   -3.2994   -0.2666 C   0  0  0  0  0  0  0  0  0  0  0  0
   -0.9163   -2.7359   -1.4590 C   0  0  0  0  0  0  0  0  0  0  0  0
    1.8709   -2.2533    0.9193 C   0  0  0  0  0  0  0  0  0  0  0  0
    3.3304   -0.5325    2.0884 C   0  0  0  0  0  0  0  0  0  0  0  0
   -3.0553   -1.4920   -1.3242 C   0  0  0  0  0  0  0  0  0  0  0  0
    4.2161    0.1640    1.0962 C   0  0  0  0  0  0  0  0  0  0  0  0
   -3.7905   -0.2913   -0.9064 C   0  0  0  0  0  0  0  0  0  0  0  0
    4.3313    1.5539    1.1200 C   0  0  0  0  0  0  0  0  0  0  0  0
    4.9234   -0.5782    0.1504 C   0  0  0  0  0  0  0  0  0  0  0  0
   -4.3589   -0.2354    0.3685 C   0  0  0  0  0  0  0  0  0  0  0  0
   -3.9154    0.7921   -1.7938 C   0  0  0  0  0  0  0  0  0  0  0  0
   -5.0400    0.9132    0.7160 C   0  0  0  0  0  0  0  0  0  0  0  0
    5.1540    2.2015    0.1984 C   0  0  0  0  0  0  0  0  0  0  0  0
    5.7459    0.0692   -0.7714 C   0  0  0  0  0  0  0  0  0  0  0  0
   -4.6102    1.9438   -1.4167 C   0  0  0  0  0  0  0  0  0  0  0  0
   -5.1622    1.9735   -0.1525 C   0  0  0  0  0  0  0  0  0  0  0  0
    5.8613    1.4592   -0.7474 C   0  0  0  0  0  0  0  0  0  0  0  0
   -6.1800    2.4728    1.6903 C   0  0  0  0  0  0  0  0  0  0  0  0
    6.7348    3.5138   -1.5664 C   0  0  0  0  0  0  0  0  0  0  0  0
   -0.8449   -1.2511    1.5566 H   0  0  0  0  0  0  0  0  0  0  0  0
    1.2587    0.6801    0.5629 H   0  0  0  0  0  0  0  0  0  0  0  0
    0.6894    0.3826    2.2309 H   0  0  0  0  0  0  0  0  0  0  0  0
   -1.4878    0.3954   -0.1821 H   0  0  0  0  0  0  0  0  0  0  0  0
   -0.1773   -0.1327   -1.2379 H   0  0  0  0  0  0  0  0  0  0  0  0
   -0.8368   -3.7399    0.4602 H   0  0  0  0  0  0  0  0  0  0  0  0
    0.5626   -4.0737   -0.5782 H   0  0  0  0  0  0  0  0  0  0  0  0
   -0.2212   -2.4202   -2.2462 H   0  0  0  0  0  0  0  0  0  0  0  0
   -1.5698   -3.5052   -1.8817 H   0  0  0  0  0  0  0  0  0  0  0  0
    3.8637   -1.4037    2.4881 H   0  0  0  0  0  0  0  0  0  0  0  0
    3.0894    0.1121    2.9414 H   0  0  0  0  0  0  0  0  0  0  0  0
    3.7835    2.1433    1.8506 H   0  0  0  0  0  0  0  0  0  0  0  0
    4.8496   -1.6615    0.1225 H   0  0  0  0  0  0  0  0  0  0  0  0
   -4.2697   -1.0633    1.0639 H   0  0  0  0  0  0  0  0  0  0  0  0
   -3.4698    0.7418   -2.7845 H   0  0  0  0  0  0  0  0  0  0  0  0
    5.1969    3.2828    0.2727 H   0  0  0  0  0  0  0  0  0  0  0  0
    6.2953   -0.5143   -1.5050 H   0  0  0  0  0  0  0  0  0  0  0  0
   -4.7087    2.7812   -2.0979 H   0  0  0  0  0  0  0  0  0  0  0  0
   -5.7621    3.1433    2.4501 H   0  0  0  0  0  0  0  0  0  0  0  0
   -7.2694    2.4435    1.8077 H   0  0  0  0  0  0  0  0  0  0  0  0
    7.4168    3.8484   -2.3549 H   0  0  0  0  0  0  0  0  0  0  0  0
    7.1630    3.8416   -0.6130 H   0  0  0  0  0  0  0  0  0  0  0  0
    5.7629    3.9776   -1.7663 H   0  0  0  0  0  0  0  0  0  0  0  0
  1 14  2  0  0  0  0
  2 16  2  0  0  0  0
  3 23  1  0  0  0  0
  3 29  1  0  0  0  0
  4 27  1  0  0  0  0
  4 29  1  0  0  0  0
  5 28  1  0  0  0  0
  5 30  1  0  0  0  0
  6  9  1  0  0  0  0
  6 12  1  0  0  0  0
  6 14  1  0  0  0  0
  7 10  1  0  0  0  0
  7 14  1  0  0  0  0
  7 15  1  0  0  0  0
  8 11  1  0  0  0  0
  8 13  1  0  0  0  0
  8 16  1  0  0  0  0
  9 10  1  0  0  0  0
  9 11  1  0  0  0  0
  9 31  1  0  0  0  0
 10 32  1  0  0  0  0
 10 33  1  0  0  0  0
 11 34  1  0  0  0  0
 11 35  1  0  0  0  0
 12 13  1  0  0  0  0
 12 36  1  0  0  0  0
 12 37  1  0  0  0  0
 13 38  1  0  0  0  0
 13 39  1  0  0  0  0
 15 17  1  0  0  0  0
 15 40  1  0  0  0  0
 15 41  1  0  0  0  0
 16 18  1  0  0  0  0
 17 19  2  0  0  0  0
 17 20  1  0  0  0  0
 18 21  2  0  0  0  0
 18 22  1  0  0  0  0
 19 24  1  0  0  0  0
 19 42  1  0  0  0  0
 20 25  2  0  0  0  0
 20 43  1  0  0  0  0
 21 23  1  0  0  0  0
 21 44  1  0  0  0  0
 22 26  2  0  0  0  0
 22 45  1  0  0  0  0
 23 27  2  0  0  0  0
 24 28  2  0  0  0  0
 24 46  1  0  0  0  0
 25 28  1  0  0  0  0
 25 47  1  0  0  0  0
 26 27  1  0  0  0  0
 26 48  1  0  0  0  0
 29 49  1  0  0  0  0
 29 50  1  0  0  0  0
 30 51  1  0  0  0  0
 30 52  1  0  0  0  0
 30 53  1  0  0  0  0
M  END
> <PUBCHEM_COMPOUND_CID>
75368458

> <PUBCHEM_CONFORMER_RMSD>
0.8

> <PUBCHEM_CONFORMER_DIVERSEORDER>
1
30
151
147
55
86
80
8
83
115
24
45
156
118
166
124
160
127
103
40
179
135
28
162
134
141
22
130
122
131
44
128
90
87
92
19
120
91
117
126
121
148
176
27
107
63
74
49
23
136
150
56
129
12
158
47
153
54
167
78
111
85
73
163
94
155
39
172
142
96
152
149
178
154
112
20
93
170
88
132
14
17
157
46
59
76
114
169
123
101
53
110
11
5
108
42
145
81
171
109
143
26
173
159
175
58
36
2
174
69
29
33
177
119
68
3
106
144
37
140
164
99
57
50
100
138
10
79
61
70
102
51
116
95
34
60
104
32
125
38
48
97
67
7
98
25
43
21
165
9
6
64
113
35
168
77
72
4
66
18
146
65
31
62
133
84
89
139
137
71
75
82
15
41
13
52
105
16
161

> <PUBCHEM_MMFF94_PARTIAL_CHARGES>
37
1 -0.57
10 0.3
11 0.3
12 0.3
13 0.3
14 0.69
15 0.44
16 0.54
17 -0.14
18 0.09
19 -0.15
2 -0.57
20 -0.15
21 -0.15
22 -0.15
23 0.08
24 -0.15
25 -0.15
26 -0.15
27 0.08
28 0.08
29 0.56
3 -0.36
30 0.28
4 -0.36
42 0.15
43 0.15
44 0.15
45 0.15
46 0.15
47 0.15
48 0.15
5 -0.36
6 -0.66
7 -0.66
8 -0.66
9 0.3

> <PUBCHEM_EFFECTIVE_ROTOR_COUNT>
6.8

> <PUBCHEM_PHARMACOPHORE_FEATURES>
10
1 1 acceptor
1 2 acceptor
1 3 acceptor
1 4 acceptor
1 5 acceptor
5 3 4 23 27 29 rings
5 6 7 9 10 14 rings
6 17 19 20 24 25 28 rings
6 18 21 22 23 26 27 rings
6 6 8 9 11 12 13 rings

> <PUBCHEM_HEAVY_ATOM_COUNT>
30

> <PUBCHEM_ATOM_DEF_STEREO_COUNT>
1

> <PUBCHEM_ATOM_UDEF_STEREO_COUNT>
0

> <PUBCHEM_BOND_DEF_STEREO_COUNT>
0

> <PUBCHEM_BOND_UDEF_STEREO_COUNT>
0

> <PUBCHEM_ISOTOPIC_ATOM_COUNT>
0

> <PUBCHEM_COMPONENT_COUNT>
1

> <PUBCHEM_CACTVS_TAUTO_COUNT>
1

> <PUBCHEM_CONFORMER_ID>
047E080A00000001

> <PUBCHEM_MMFF94_ENERGY>
90.6601

> <PUBCHEM_FEATURE_SELFOVERLAP>
51.004

> <PUBCHEM_SHAPE_FINGERPRINT>
11135609 201 18041563658170289208
11475781 23 17489582381841286808
1200032 147 17559410067561238939
12390115 104 18272366486527712687
12422481 6 17676759873276502356
13383665 225 18201725072478223879
13690498 29 17487045923721041303
13782708 43 11887372730393087357
13828863 39 18259987080514590709
13885169 86 18187369873818865076
13944108 23 17411626796625331257
14150022 121 17315932227598226346
14664723 55 18271819981577209117
14790565 3 18411694409033195760
14840074 17 18334858303381315925
14848178 5 12391520810450010182
14950920 106 15720775936509218432
15052358 14 16989129738166977168
15163728 17 18273214188085472687
15183329 4 17489590064989081184
15188451 53 7925916958602119000
15274700 21 18194690487019901195
15338160 23 18187936135461038491
15419009 47 12031248164598747059
15519825 34 8646491752985357916
15575132 122 18336542725241151981
15684389 69 13118587176521315878
16120349 67 18271817829871660962
16991971 28 17484501689182038887
1768 23 18408045112903441960
17857418 61 9367341565499458555
19377110 9 13551770499441547971
20621476 91 13262399959891243777
20691028 202 18271521984298862009
21033650 10 18128812130780932666
21120745 212 17977097182927437839
21223535 225 18200588228763108224
21315764 119 17846226544668423438
21458453 9 13262977255383860364
21774942 28 18267864055791303892
22122407 14 17096901642986012975
23559900 14 17775280513758013398
24771750 20 17846505773029988711
249057 25 18190433091754960050
312425 83 15553297384652262000
3610482 184 18202565089938453437
38570 142 17275111579244469435
4058900 60 18199475381013809387
4173938 77 17677059052747380044
4258327 124 18335972109345464757
437795 70 16343712010300382320
439807 62 9510875100010588153
4408954 87 16443644479107404105
50009960 94 10087364357795359556
57724786 102 18198340646437937571
6034566 193 18409164428809834855
6058803 2 18196061457091467391
6712543 237 11675413276652467940

> <PUBCHEM_SHAPE_MULTIPOLES>
573.1
18.07
3.92
1.94
6.51
0.24
-0.02
-20.6
1.91
0.56
0.86
-0.42
-0.31
-4.19

> <PUBCHEM_SHAPE_SELFOVERLAP>
1256.521

> <PUBCHEM_SHAPE_VOLUME>
310.4

> <PUBCHEM_COORDINATE_TYPE>
2
5
10

$$$$
