25390186
  -OEChem-12032416353D

 54 56  0     1  0  0  0  0  0999 V2000
    5.3015   -0.9878   -0.5940 F   0  0  0  0  0  0  0  0  0  0  0  0
   -2.7455    0.3138   -0.6004 O   0  0  0  0  0  0  0  0  0  0  0  0
   -5.5931   -1.4062    0.7531 O   0  0  0  0  0  0  0  0  0  0  0  0
   -5.6881    0.3353   -1.3745 O   0  0  0  0  0  0  0  0  0  0  0  0
   -1.3932   -2.4613   -1.2699 O   0  0  0  0  0  0  0  0  0  0  0  0
   -0.6069    1.4438    1.1040 O   0  0  0  0  0  0  0  0  0  0  0  0
   -1.9451    2.9841    0.0144 N   0  0  0  0  0  0  0  0  0  0  0  0
   -0.4897   -3.1028    0.7729 N   0  0  0  0  0  0  0  0  0  0  0  0
    0.3455    3.1834   -0.1520 N   0  0  0  0  0  0  0  0  0  0  0  0
   -4.6083   -0.3996    0.6565 C   0  0  2  0  0  0  0  0  0  0  0  0
   -5.0399    0.7836   -0.1847 C   0  0  1  0  0  0  0  0  0  0  0  0
   -3.3779   -0.8760   -0.0967 C   0  0  2  0  0  0  0  0  0  0  0  0
   -3.7014    1.3986   -0.5781 C   0  0  1  0  0  0  0  0  0  0  0  0
   -2.4000   -1.6460    0.7727 C   0  0  0  0  0  0  0  0  0  0  0  0
   -3.2055    2.4358    0.4202 C   0  0  0  0  0  0  0  0  0  0  0  0
   -1.3909   -2.4338   -0.0421 C   0  0  0  0  0  0  0  0  0  0  0  0
   -0.7059    2.4399    0.3914 C   0  0  0  0  0  0  0  0  0  0  0  0
    0.5770   -3.9300    0.2574 C   0  0  0  0  0  0  0  0  0  0  0  0
    1.8369   -3.1456    0.0305 C   0  0  0  0  0  0  0  0  0  0  0  0
    1.7342    2.9586   -0.0052 C   0  0  0  0  0  0  0  0  0  0  0  0
    2.0663   -2.5365   -1.2033 C   0  0  0  0  0  0  0  0  0  0  0  0
    2.7779   -3.0255    1.0532 C   0  0  0  0  0  0  0  0  0  0  0  0
    3.2367   -1.8078   -1.4145 C   0  0  0  0  0  0  0  0  0  0  0  0
    3.9483   -2.2969    0.8420 C   0  0  0  0  0  0  0  0  0  0  0  0
    2.6474    3.8119   -0.6245 C   0  0  0  0  0  0  0  0  0  0  0  0
    2.1908    1.8843    0.7583 C   0  0  0  0  0  0  0  0  0  0  0  0
    4.1777   -1.6880   -0.3918 C   0  0  0  0  0  0  0  0  0  0  0  0
    4.0172    3.5909   -0.4805 C   0  0  0  0  0  0  0  0  0  0  0  0
    3.5605    1.6633    0.9025 C   0  0  0  0  0  0  0  0  0  0  0  0
    4.4736    2.5166    0.2830 C   0  0  0  0  0  0  0  0  0  0  0  0
   -4.3391   -0.0683    1.6667 H   0  0  0  0  0  0  0  0  0  0  0  0
   -5.7224    1.4619    0.3351 H   0  0  0  0  0  0  0  0  0  0  0  0
   -3.6811   -1.4852   -0.9581 H   0  0  0  0  0  0  0  0  0  0  0  0
   -3.7272    1.8278   -1.5866 H   0  0  0  0  0  0  0  0  0  0  0  0
   -2.9411   -2.3690    1.3953 H   0  0  0  0  0  0  0  0  0  0  0  0
   -1.8494   -0.9662    1.4327 H   0  0  0  0  0  0  0  0  0  0  0  0
   -3.0834    1.9980    1.4169 H   0  0  0  0  0  0  0  0  0  0  0  0
   -3.9145    3.2668    0.4934 H   0  0  0  0  0  0  0  0  0  0  0  0
   -6.3880   -1.0001    1.1387 H   0  0  0  0  0  0  0  0  0  0  0  0
   -5.9126    1.1236   -1.8977 H   0  0  0  0  0  0  0  0  0  0  0  0
   -1.9501    3.8026   -0.5865 H   0  0  0  0  0  0  0  0  0  0  0  0
   -0.5628   -3.0007    1.7812 H   0  0  0  0  0  0  0  0  0  0  0  0
    0.2511   -4.4062   -0.6749 H   0  0  0  0  0  0  0  0  0  0  0  0
    0.7496   -4.7341    0.9817 H   0  0  0  0  0  0  0  0  0  0  0  0
    0.0897    3.9849   -0.7230 H   0  0  0  0  0  0  0  0  0  0  0  0
    1.3436   -2.6234   -2.0099 H   0  0  0  0  0  0  0  0  0  0  0  0
    2.6097   -3.4933    2.0196 H   0  0  0  0  0  0  0  0  0  0  0  0
    3.4156   -1.3330   -2.3746 H   0  0  0  0  0  0  0  0  0  0  0  0
    4.6807   -2.2019    1.6383 H   0  0  0  0  0  0  0  0  0  0  0  0
    2.3051    4.6528   -1.2223 H   0  0  0  0  0  0  0  0  0  0  0  0
    1.5471    1.1813    1.2678 H   0  0  0  0  0  0  0  0  0  0  0  0
    4.7283    4.2554   -0.9625 H   0  0  0  0  0  0  0  0  0  0  0  0
    3.9178    0.8333    1.5045 H   0  0  0  0  0  0  0  0  0  0  0  0
    5.5400    2.3451    0.3967 H   0  0  0  0  0  0  0  0  0  0  0  0
  1 27  1  0  0  0  0
  2 12  1  0  0  0  0
  2 13  1  0  0  0  0
  3 10  1  0  0  0  0
  3 39  1  0  0  0  0
  4 11  1  0  0  0  0
  4 40  1  0  0  0  0
  5 16  2  0  0  0  0
  6 17  2  0  0  0  0
  7 15  1  0  0  0  0
  7 17  1  0  0  0  0
  7 41  1  0  0  0  0
  8 16  1  0  0  0  0
  8 18  1  0  0  0  0
  8 42  1  0  0  0  0
  9 17  1  0  0  0  0
  9 20  1  0  0  0  0
  9 45  1  0  0  0  0
 10 11  1  0  0  0  0
 10 12  1  0  0  0  0
 10 31  1  0  0  0  0
 11 13  1  0  0  0  0
 11 32  1  0  0  0  0
 12 14  1  0  0  0  0
 12 33  1  0  0  0  0
 13 15  1  0  0  0  0
 13 34  1  0  0  0  0
 14 16  1  0  0  0  0
 14 35  1  0  0  0  0
 14 36  1  0  0  0  0
 15 37  1  0  0  0  0
 15 38  1  0  0  0  0
 18 19  1  0  0  0  0
 18 43  1  0  0  0  0
 18 44  1  0  0  0  0
 19 21  2  0  0  0  0
 19 22  1  0  0  0  0
 20 25  2  0  0  0  0
 20 26  1  0  0  0  0
 21 23  1  0  0  0  0
 21 46  1  0  0  0  0
 22 24  2  0  0  0  0
 22 47  1  0  0  0  0
 23 27  2  0  0  0  0
 23 48  1  0  0  0  0
 24 27  1  0  0  0  0
 24 49  1  0  0  0  0
 25 28  1  0  0  0  0
 25 50  1  0  0  0  0
 26 29  2  0  0  0  0
 26 51  1  0  0  0  0
 28 30  2  0  0  0  0
 28 52  1  0  0  0  0
 29 30  1  0  0  0  0
 29 53  1  0  0  0  0
 30 54  1  0  0  0  0
M  END
> <PUBCHEM_COMPOUND_CID>
25390186

> <PUBCHEM_CONFORMER_RMSD>
1.4

> <PUBCHEM_CONFORMER_DIVERSEORDER>
1
65
68
120
11
59
5
96
80
100
44
20
35
4
71
54
24
110
118
86
72
58
117
73
17
21
7
75
69
104
61
113
94
31
30
37
116
15
87
78
33
79
81
43
26
60
85
45
62
2
51
40
12
52
47
105
34
83
41
18
119
90
97
27
93
42
55
67
10
88
29
101
115
36
102
56
13
70
107
53
49
114
111
92
64
22
25
84
39
106
63
103
48
8
121
123
19
99
98
77
14
112
74
16
9
32
91
50
108
38
28
23
122
57
82
66
3
109
46
6
95
89
76

> <PUBCHEM_MMFF94_PARTIAL_CHARGES>
44
1 -0.19
10 0.28
11 0.28
12 0.28
13 0.28
14 0.06
15 0.3
16 0.57
17 0.69
18 0.44
19 -0.14
2 -0.56
20 0.12
21 -0.15
22 -0.15
23 -0.15
24 -0.15
25 -0.15
26 -0.15
27 0.19
28 -0.15
29 -0.15
3 -0.68
30 -0.15
39 0.4
4 -0.68
40 0.4
41 0.37
42 0.37
45 0.37
46 0.15
47 0.15
48 0.15
49 0.15
5 -0.57
50 0.15
51 0.15
52 0.15
53 0.15
54 0.15
6 -0.57
7 -0.73
8 -0.73
9 -0.55

> <PUBCHEM_EFFECTIVE_ROTOR_COUNT>
11

> <PUBCHEM_PHARMACOPHORE_FEATURES>
13
1 2 acceptor
1 3 acceptor
1 3 donor
1 4 acceptor
1 4 donor
1 5 acceptor
1 6 acceptor
1 7 donor
1 8 donor
1 9 donor
5 2 10 11 12 13 rings
6 19 21 22 23 24 27 rings
6 20 25 26 28 29 30 rings

> <PUBCHEM_HEAVY_ATOM_COUNT>
30

> <PUBCHEM_ATOM_DEF_STEREO_COUNT>
4

> <PUBCHEM_ATOM_UDEF_STEREO_COUNT>
0

> <PUBCHEM_BOND_DEF_STEREO_COUNT>
0

> <PUBCHEM_BOND_UDEF_STEREO_COUNT>
0

> <PUBCHEM_ISOTOPIC_ATOM_COUNT>
0

> <PUBCHEM_COMPONENT_COUNT>
1

> <PUBCHEM_CACTVS_TAUTO_COUNT>
6

> <PUBCHEM_CONFORMER_ID>
01836C6A00000001

> <PUBCHEM_MMFF94_ENERGY>
70.2568

> <PUBCHEM_FEATURE_SELFOVERLAP>
66.037

> <PUBCHEM_SHAPE_FINGERPRINT>
10670039 82 18121512249941228718
11513181 2 18130509755544122486
12422481 6 18126256797660335122
13122387 1 17906735795938236174
13402501 40 18410855456234212082
1361 2 18409727348598498904
14020679 6 17828508894081925425
14784336 7 17916293013411717073
14931854 50 18338520712141007974
15320467 1 18338236084605293968
15927050 60 18196376046787444719
16067689 134 17405717978315441233
16067689 302 18268996552757467807
16719943 64 18121498226756494488
17093844 170 18340205306184657048
17852330 134 18265874975158800231
19930381 70 18410011018429695451
20764821 26 18410288138230453126
21344244 246 18267007527474033623
23559900 14 18339072705532961097
3027735 51 17837765995692356591
3298306 158 18268430320234955669
338550 245 18336828688616578676
45266715 3 17697283534005493565
463206 1 18272645805003371396
5265222 85 17759253177035111628
532947 4 18410852183701124333
6433294 58 18411421696132822588
9543594 6 18412542107250640112

> <PUBCHEM_SHAPE_MULTIPOLES>
565.82
11.01
6.22
1.1
7.46
0.59
0.13
1.53
0.83
-6.02
-0.05
-0.17
-0.4
0.3

> <PUBCHEM_SHAPE_SELFOVERLAP>
1197.997

> <PUBCHEM_SHAPE_VOLUME>
316.3

> <PUBCHEM_COORDINATE_TYPE>
2
5
10

$$$$
