45784271
  -OEChem-12032416243D

 44 47  0     1  0  0  0  0  0999 V2000
    6.7630   -0.8933   -0.8596 F   0  0  0  0  0  0  0  0  0  0  0  0
    6.6363    0.6615    0.6551 F   0  0  0  0  0  0  0  0  0  0  0  0
    6.2333   -1.4022    1.1870 F   0  0  0  0  0  0  0  0  0  0  0  0
   -7.1723   -1.3023    0.1197 O   0  0  0  0  0  0  0  0  0  0  0  0
   -3.4732    0.6670    0.3738 N   0  0  1  0  0  0  0  0  0  0  0  0
    1.2500    0.7072    1.1793 N   0  0  0  0  0  0  0  0  0  0  0  0
    0.5459    0.3105   -0.8911 N   0  0  0  0  0  0  0  0  0  0  0  0
   -1.1983    1.0775    0.7689 C   0  0  2  0  0  0  0  0  0  0  0  0
   -4.5276   -0.1975   -0.1508 C   0  0  0  0  0  0  0  0  0  0  0  0
   -2.2198   -0.0555    0.6009 C   0  0  0  0  0  0  0  0  0  0  0  0
   -3.1248    1.7450   -0.5517 C   0  0  0  0  0  0  0  0  0  0  0  0
   -1.8142    2.2715    0.0187 C   0  0  0  0  0  0  0  0  0  0  0  0
   -4.8550   -1.3070    0.8525 C   0  0  0  0  0  0  0  0  0  0  0  0
   -5.7906    0.6071   -0.4733 C   0  0  0  0  0  0  0  0  0  0  0  0
    0.1905    0.6908    0.3156 C   0  0  0  0  0  0  0  0  0  0  0  0
   -6.0376   -2.1345    0.3608 C   0  0  0  0  0  0  0  0  0  0  0  0
   -6.9212   -0.3265   -0.8916 C   0  0  0  0  0  0  0  0  0  0  0  0
    2.3633    0.3108    0.4837 C   0  0  0  0  0  0  0  0  0  0  0  0
    1.8978    0.0691   -0.8058 C   0  0  0  0  0  0  0  0  0  0  0  0
    3.6970    0.1479    0.8602 C   0  0  0  0  0  0  0  0  0  0  0  0
    2.8025   -0.3611   -1.7912 C   0  0  0  0  0  0  0  0  0  0  0  0
    4.5836   -0.2808   -0.1331 C   0  0  0  0  0  0  0  0  0  0  0  0
    4.1464   -0.5313   -1.4358 C   0  0  0  0  0  0  0  0  0  0  0  0
    6.0249   -0.4741    0.2081 C   0  0  0  0  0  0  0  0  0  0  0  0
   -1.1539    1.3485    1.8339 H   0  0  0  0  0  0  0  0  0  0  0  0
   -4.1881   -0.6728   -1.0831 H   0  0  0  0  0  0  0  0  0  0  0  0
   -1.9624   -0.7012   -0.2492 H   0  0  0  0  0  0  0  0  0  0  0  0
   -2.2474   -0.6701    1.5070 H   0  0  0  0  0  0  0  0  0  0  0  0
   -3.8699    2.5460   -0.5779 H   0  0  0  0  0  0  0  0  0  0  0  0
   -2.9629    1.3741   -1.5720 H   0  0  0  0  0  0  0  0  0  0  0  0
   -2.0109    3.0846    0.7288 H   0  0  0  0  0  0  0  0  0  0  0  0
   -1.1676    2.6695   -0.7706 H   0  0  0  0  0  0  0  0  0  0  0  0
   -4.0061   -1.9805    1.0102 H   0  0  0  0  0  0  0  0  0  0  0  0
   -5.1136   -0.8607    1.8219 H   0  0  0  0  0  0  0  0  0  0  0  0
   -6.1051    1.1687    0.4162 H   0  0  0  0  0  0  0  0  0  0  0  0
   -5.6231    1.3261   -1.2822 H   0  0  0  0  0  0  0  0  0  0  0  0
   -6.3195   -2.8693    1.1216 H   0  0  0  0  0  0  0  0  0  0  0  0
   -5.7876   -2.6846   -0.5541 H   0  0  0  0  0  0  0  0  0  0  0  0
   -6.6931   -0.8317   -1.8376 H   0  0  0  0  0  0  0  0  0  0  0  0
   -7.8424    0.2467   -1.0370 H   0  0  0  0  0  0  0  0  0  0  0  0
    1.2220    0.9646    2.1571 H   0  0  0  0  0  0  0  0  0  0  0  0
    4.0260    0.3452    1.8747 H   0  0  0  0  0  0  0  0  0  0  0  0
    2.4724   -0.5584   -2.8061 H   0  0  0  0  0  0  0  0  0  0  0  0
    4.8419   -0.8643   -2.2025 H   0  0  0  0  0  0  0  0  0  0  0  0
  1 24  1  0  0  0  0
  2 24  1  0  0  0  0
  3 24  1  0  0  0  0
  4 16  1  0  0  0  0
  4 17  1  0  0  0  0
  5  9  1  0  0  0  0
  5 10  1  0  0  0  0
  5 11  1  0  0  0  0
  6 15  1  0  0  0  0
  6 18  1  0  0  0  0
  6 41  1  0  0  0  0
  7 15  2  0  0  0  0
  7 19  1  0  0  0  0
  8 10  1  0  0  0  0
  8 12  1  0  0  0  0
  8 15  1  0  0  0  0
  8 25  1  0  0  0  0
  9 13  1  0  0  0  0
  9 14  1  0  0  0  0
  9 26  1  0  0  0  0
 10 27  1  0  0  0  0
 10 28  1  0  0  0  0
 11 12  1  0  0  0  0
 11 29  1  0  0  0  0
 11 30  1  0  0  0  0
 12 31  1  0  0  0  0
 12 32  1  0  0  0  0
 13 16  1  0  0  0  0
 13 33  1  0  0  0  0
 13 34  1  0  0  0  0
 14 17  1  0  0  0  0
 14 35  1  0  0  0  0
 14 36  1  0  0  0  0
 16 37  1  0  0  0  0
 16 38  1  0  0  0  0
 17 39  1  0  0  0  0
 17 40  1  0  0  0  0
 18 19  2  0  0  0  0
 18 20  1  0  0  0  0
 19 21  1  0  0  0  0
 20 22  2  0  0  0  0
 20 42  1  0  0  0  0
 21 23  2  0  0  0  0
 21 43  1  0  0  0  0
 22 23  1  0  0  0  0
 22 24  1  0  0  0  0
 23 44  1  0  0  0  0
M  END
> <PUBCHEM_COMPOUND_CID>
45784271

> <PUBCHEM_CONFORMER_RMSD>
0.8

> <PUBCHEM_CONFORMER_DIVERSEORDER>
1
6
18
4
17
10
8
19
7
15
16
9
14
12
2
13
11
5
3

> <PUBCHEM_MMFF94_PARTIAL_CHARGES>
25
1 -0.34
10 0.27
11 0.27
15 0.01
16 0.28
17 0.28
18 -0.15
19 0.23
2 -0.34
20 -0.15
21 -0.15
22 -0.14
23 -0.15
24 1.16
3 -0.34
4 -0.56
41 0.27
42 0.15
43 0.15
44 0.15
5 -0.81
6 0.03
7 -0.57
8 0.18
9 0.27

> <PUBCHEM_EFFECTIVE_ROTOR_COUNT>
5.2

> <PUBCHEM_PHARMACOPHORE_FEATURES>
8
1 4 acceptor
1 5 cation
1 6 donor
3 6 7 15 cation
5 5 8 10 11 12 rings
5 6 7 15 18 19 rings
6 18 19 20 21 22 23 rings
6 4 9 13 14 16 17 rings

> <PUBCHEM_HEAVY_ATOM_COUNT>
24

> <PUBCHEM_ATOM_DEF_STEREO_COUNT>
1

> <PUBCHEM_ATOM_UDEF_STEREO_COUNT>
0

> <PUBCHEM_BOND_DEF_STEREO_COUNT>
0

> <PUBCHEM_BOND_UDEF_STEREO_COUNT>
0

> <PUBCHEM_ISOTOPIC_ATOM_COUNT>
0

> <PUBCHEM_COMPONENT_COUNT>
1

> <PUBCHEM_CACTVS_TAUTO_COUNT>
2

> <PUBCHEM_CONFORMER_ID>
02BA9CCF00000001

> <PUBCHEM_MMFF94_ENERGY>
36.813

> <PUBCHEM_FEATURE_SELFOVERLAP>
40.704

> <PUBCHEM_SHAPE_FINGERPRINT>
10 15 17988633121929305970
10066227 112 10881692316529125270
10354089 29 14405185067054669082
106641 1 16200144421969748474
10670039 82 12179830698356401119
10693767 8 16515952667666295802
10763959 59 11746943104808077854
11089746 13 15791451530272160716
11315181 36 18413109472725964449
11524674 6 17203607108148767703
11719270 70 18272369759108436134
11963148 33 18412819196507703022
12166972 35 17676209086702559996
12236239 1 17603305946726403516
12516196 113 17203328914167958713
13073987 5 17060063579955777330
13177829 20 14476957913445999247
13288520 33 18408603669790783913
13402501 40 18131356319199207695
13533116 47 17749100055114834658
13668630 136 17675926495050046243
13685833 64 18060138747348493241
13782708 43 18201157663694620838
13885169 127 17988646260282191769
13914758 101 16371000776531249429
1420 363 17988927768594896884
14251752 14 17676202468632203295
14251764 18 14117796925452593789
14294032 229 17532926100992983341
14341114 328 13758080692925133143
14848160 23 18342457045398963779
14849402 71 14332828461599456418
15048467 5 9295287244300450218
15183329 4 15502370132431630499
15188451 53 18260544507377517714
15461852 350 18113902641802533468
15510800 12 18201166550483694663
15716309 27 17418374696831480519
17093844 174 17989207024155125857
17834072 8 13840266987492603390
18222031 100 17530964687785151452
18335252 98 18202004331277974806
18681886 176 17967811686422600225
190975 80 17489303126608345703
19377110 9 15482674567405105315
19489759 90 18187085022702232865
200 152 16732986413996199565
20281389 69 9367345929286672438
20374829 77 18409450302265443257
20621476 66 10231754496001026082
20681677 155 11023819574512346460
21054139 6 17894911836418416651
21150785 3 17821733845006824878
21267235 1 18202568379730329905
21521721 280 15985095349909709322
21623969 137 17346884437639655574
21756936 100 10015579489796238129
21781051 124 17703520943669537438
221357 26 14779542387738237174
22224240 67 15841547483277979191
23035841 295 18333732416748998801
23198884 109 15936408949256546911
23402539 116 18113618976055079957
23522609 53 18121813649018322745
23559900 14 18114741650462991521
23576562 1 14057871376954666882
25147074 1 17169257162163790489
2838139 119 14418130717129065223
29717793 49 17167866348562990086
3004659 81 17749105617023642281
3009799 131 14996003250841711084
3014965 18 12685079381248071048
3178227 256 16773794801747640218
34797466 226 17703517670793869388
3663271 9 14189582927297226895
4325135 7 18342176700463252660
4340502 62 16128655250053158166
465052 167 18131632266921766394
5104073 3 16557634015066317434
5283156 175 17967251979670322339
5758199 1 14764341657085939862
59682541 35 17560794455642731842
59755656 215 18409166593252299567
59755656 520 8502372209548854521
6328613 192 9655567526588956898
7495541 125 18343584066329655400

> <PUBCHEM_SHAPE_MULTIPOLES>
451.28
19.57
1.57
1.21
1
0.13
0.26
-9.44
0.46
2.14
-0.17
-1
-0.13
0.72

> <PUBCHEM_SHAPE_SELFOVERLAP>
981.006

> <PUBCHEM_SHAPE_VOLUME>
250.6

> <PUBCHEM_COORDINATE_TYPE>
2
5
10

$$$$
