51137036
  -OEChem-12032416283D

 39 42  0     1  0  0  0  0  0999 V2000
   -6.0729    2.0418    0.5509 F   0  0  0  0  0  0  0  0  0  0  0  0
   -7.3135   -0.3942    0.4953 F   0  0  0  0  0  0  0  0  0  0  0  0
   -1.0251   -0.4251   -0.1642 N   0  0  1  0  0  0  0  0  0  0  0  0
    3.6379   -1.3144    0.4904 N   0  0  0  0  0  0  0  0  0  0  0  0
    3.0352    0.7518   -0.0820 N   0  0  0  0  0  0  0  0  0  0  0  0
    5.2682    1.6034   -0.5087 N   0  0  0  0  0  0  0  0  0  0  0  0
    1.1732   -0.8408    0.5387 C   0  0  1  0  0  0  0  0  0  0  0  0
    0.4345   -0.0251    1.6140 C   0  0  0  0  0  0  0  0  0  0  0  0
    0.3012   -0.7077   -0.7171 C   0  0  0  0  0  0  0  0  0  0  0  0
   -0.7888    0.5433    0.9065 C   0  0  0  0  0  0  0  0  0  0  0  0
    2.6089   -0.4307    0.3052 C   0  0  0  0  0  0  0  0  0  0  0  0
   -1.9507    0.0754   -1.1697 C   0  0  0  0  0  0  0  0  0  0  0  0
   -3.3836   -0.0504   -0.7248 C   0  0  0  0  0  0  0  0  0  0  0  0
    4.8034   -0.6573    0.2038 C   0  0  0  0  0  0  0  0  0  0  0  0
    4.3999    0.6255   -0.1492 C   0  0  0  0  0  0  0  0  0  0  0  0
   -4.0782    1.0762   -0.2841 C   0  0  0  0  0  0  0  0  0  0  0  0
   -4.0166   -1.2930   -0.7536 C   0  0  0  0  0  0  0  0  0  0  0  0
    6.1426   -1.0317    0.2124 C   0  0  0  0  0  0  0  0  0  0  0  0
   -5.4059    0.9600    0.1278 C   0  0  0  0  0  0  0  0  0  0  0  0
   -5.3442   -1.4091   -0.3415 C   0  0  0  0  0  0  0  0  0  0  0  0
    7.0461   -0.0380   -0.1545 C   0  0  0  0  0  0  0  0  0  0  0  0
   -6.0389   -0.2826    0.0991 C   0  0  0  0  0  0  0  0  0  0  0  0
    6.5675    1.2229   -0.4947 C   0  0  0  0  0  0  0  0  0  0  0  0
    1.1592   -1.8928    0.8589 H   0  0  0  0  0  0  0  0  0  0  0  0
    0.1232   -0.6927    2.4272 H   0  0  0  0  0  0  0  0  0  0  0  0
    1.0461    0.7702    2.0534 H   0  0  0  0  0  0  0  0  0  0  0  0
    0.6490    0.1110   -1.3611 H   0  0  0  0  0  0  0  0  0  0  0  0
    0.3075   -1.6323   -1.3047 H   0  0  0  0  0  0  0  0  0  0  0  0
   -0.5557    1.5412    0.5132 H   0  0  0  0  0  0  0  0  0  0  0  0
   -1.6359    0.6268    1.5944 H   0  0  0  0  0  0  0  0  0  0  0  0
   -1.7205    1.1076   -1.4668 H   0  0  0  0  0  0  0  0  0  0  0  0
   -1.8536   -0.5156   -2.0916 H   0  0  0  0  0  0  0  0  0  0  0  0
    3.5543   -2.2783    0.7854 H   0  0  0  0  0  0  0  0  0  0  0  0
   -3.5967    2.0499   -0.2553 H   0  0  0  0  0  0  0  0  0  0  0  0
   -3.4863   -2.1782   -1.0948 H   0  0  0  0  0  0  0  0  0  0  0  0
    6.4646   -2.0289    0.4860 H   0  0  0  0  0  0  0  0  0  0  0  0
   -5.8373   -2.3764   -0.3634 H   0  0  0  0  0  0  0  0  0  0  0  0
    8.1111   -0.2453   -0.1745 H   0  0  0  0  0  0  0  0  0  0  0  0
    7.2659    2.0044   -0.7823 H   0  0  0  0  0  0  0  0  0  0  0  0
  1 19  1  0  0  0  0
  2 22  1  0  0  0  0
  3  9  1  0  0  0  0
  3 10  1  0  0  0  0
  3 12  1  0  0  0  0
  4 11  1  0  0  0  0
  4 14  1  0  0  0  0
  4 33  1  0  0  0  0
  5 11  2  0  0  0  0
  5 15  1  0  0  0  0
  6 15  1  0  0  0  0
  6 23  2  0  0  0  0
  7  8  1  0  0  0  0
  7  9  1  0  0  0  0
  7 11  1  0  0  0  0
  7 24  1  0  0  0  0
  8 10  1  0  0  0  0
  8 25  1  0  0  0  0
  8 26  1  0  0  0  0
  9 27  1  0  0  0  0
  9 28  1  0  0  0  0
 10 29  1  0  0  0  0
 10 30  1  0  0  0  0
 12 13  1  0  0  0  0
 12 31  1  0  0  0  0
 12 32  1  0  0  0  0
 13 16  2  0  0  0  0
 13 17  1  0  0  0  0
 14 15  2  0  0  0  0
 14 18  1  0  0  0  0
 16 19  1  0  0  0  0
 16 34  1  0  0  0  0
 17 20  2  0  0  0  0
 17 35  1  0  0  0  0
 18 21  2  0  0  0  0
 18 36  1  0  0  0  0
 19 22  2  0  0  0  0
 20 22  1  0  0  0  0
 20 37  1  0  0  0  0
 21 23  1  0  0  0  0
 21 38  1  0  0  0  0
 23 39  1  0  0  0  0
M  END
> <PUBCHEM_COMPOUND_CID>
51137036

> <PUBCHEM_CONFORMER_RMSD>
0.8

> <PUBCHEM_CONFORMER_DIVERSEORDER>
1
65
70
49
14
46
23
43
52
42
54
72
10
62
63
37
48
47
16
76
39
20
68
44
15
58
29
8
45
51
56
73
61
60
19
64
31
9
57
17
75
55
50
53
18
30
3
36
71
34
7
22
2
21
33
74
5
66
27
40
32
11
4
38
41
28
67
26
69
59
6
24
25
12
13
35

> <PUBCHEM_MMFF94_PARTIAL_CHARGES>
29
1 -0.19
10 0.27
11 0.01
12 0.41
13 -0.14
14 -0.15
15 0.48
16 -0.15
17 -0.15
18 -0.15
19 0.19
2 -0.19
20 -0.15
21 -0.15
22 0.19
23 0.16
3 -0.81
33 0.27
34 0.15
35 0.15
36 0.15
37 0.15
38 0.15
39 0.15
4 0.03
5 -0.57
6 -0.57
7 0.18
9 0.27

> <PUBCHEM_EFFECTIVE_ROTOR_COUNT>
4

> <PUBCHEM_PHARMACOPHORE_FEATURES>
8
1 3 cation
1 4 donor
1 6 acceptor
3 4 5 11 cation
5 3 7 8 9 10 rings
5 4 5 11 14 15 rings
6 13 16 17 19 20 22 rings
6 6 14 15 18 21 23 rings

> <PUBCHEM_HEAVY_ATOM_COUNT>
23

> <PUBCHEM_ATOM_DEF_STEREO_COUNT>
1

> <PUBCHEM_ATOM_UDEF_STEREO_COUNT>
0

> <PUBCHEM_BOND_DEF_STEREO_COUNT>
0

> <PUBCHEM_BOND_UDEF_STEREO_COUNT>
0

> <PUBCHEM_ISOTOPIC_ATOM_COUNT>
0

> <PUBCHEM_COMPONENT_COUNT>
1

> <PUBCHEM_CACTVS_TAUTO_COUNT>
3

> <PUBCHEM_CONFORMER_ID>
030C4A0C00000001

> <PUBCHEM_MMFF94_ENERGY>
44.7629

> <PUBCHEM_FEATURE_SELFOVERLAP>
40.726

> <PUBCHEM_SHAPE_FINGERPRINT>
10299344 5 18413107273249112431
10595046 47 18408319973450785498
106641 1 13045951222350592204
11315181 36 18333732425676562901
11524674 6 16200431403485079735
11646440 116 16443068292107278628
11719270 70 17704071759908084038
12091667 2 18060134345608499063
12166972 35 18113620088694703260
12236239 1 18413387631497052078
12516196 113 9799691497993992510
12730499 353 17603303735530688858
12788726 201 17346038865937710939
12916748 109 16515681126922208668
13167372 99 18410010997007931096
13533116 47 16878495740641557906
14123256 10 16660361485143674547
1420 363 16660363675286949047
14251752 14 17989205932299528408
14251764 18 18409166623200298703
14251764 46 18040152920227239379
14849402 71 18114752653932197876
14856354 85 18201441411125710823
14933364 13 18411138038974894572
15048467 5 18411981347477325637
15183329 4 18341609308780073340
15537594 2 16558747910233470174
15716309 27 18333167267498346455
17834072 8 15626222424855888207
18006028 8 13039189208280332938
20157964 124 18260548935974038034
20281389 69 18343580750282424545
21792961 116 17560805394175296175
220451 1 18060134344986422670
22224240 67 16298105397440009515
23035841 295 18272087206031266451
23081809 10 18342165674564753094
23198884 109 18334295370638795323
23536379 177 18411417302201664306
23569943 247 16952519188007671618
23622692 88 13623533467666085978
2747138 104 16660653955194815869
29717793 49 18060424599846347062
3004659 81 18272369751014061518
314173 85 14908181962500974906
347723 3 17132113546000061626
34797466 226 18341900705558421644
3545911 37 17385722496006219034
397830 11 15286504186771011348
4073 2 18041284356532050098
4325135 7 18333449854792192887
4340502 62 16226044484015010138
445580 37 17988934348522204977
4463277 17 17988922284106289320
5265222 85 18059292200826349814
5283156 175 17560805408020345846
542803 24 18411978066090604606
559249 180 9583518711928152261
5758199 1 17967816054699563946
59682541 35 15936698146168094585
59755656 215 15482678961647091028
59755656 520 17676202494086100498
9996256 80 18260263040763810436

> <PUBCHEM_SHAPE_MULTIPOLES>
438.86
20.35
1.41
0.97
0.86
0.25
0.12
2.5
-0.88
-0.4
-0.03
-0.23
0
-1.03

> <PUBCHEM_SHAPE_SELFOVERLAP>
968.14

> <PUBCHEM_SHAPE_VOLUME>
239.9

> <PUBCHEM_COORDINATE_TYPE>
2
5
10

$$$$
