75537066
  -OEChem-12032416413D

 36 38  0     1  0  0  0  0  0999 V2000
   -0.2028    2.4801    0.6971 O   0  0  0  0  0  0  0  0  0  0  0  0
   -1.7928    0.9136   -0.0358 N   0  0  0  0  0  0  0  0  0  0  0  0
    0.2548    0.8618   -0.9569 N   0  0  0  0  0  0  0  0  0  0  0  0
   -3.8440   -1.0058    0.1028 N   0  0  2  0  0  0  0  0  0  0  0  0
    4.0616   -1.6127   -0.2636 N   0  0  0  0  0  0  0  0  0  0  0  0
   -1.8879   -0.0888   -1.0763 C   0  0  1  0  0  0  0  0  0  0  0  0
   -0.4424   -0.2750   -1.5334 C   0  0  0  0  0  0  0  0  0  0  0  0
   -2.5592   -1.3520   -0.5382 C   0  0  0  0  0  0  0  0  0  0  0  0
   -2.9633    1.2244    0.7582 C   0  0  0  0  0  0  0  0  0  0  0  0
   -3.6368   -0.0684    1.2253 C   0  0  0  0  0  0  0  0  0  0  0  0
   -0.5398    1.5407   -0.0113 C   0  0  0  0  0  0  0  0  0  0  0  0
    1.6477    1.1300   -1.2389 C   0  0  0  0  0  0  0  0  0  0  0  0
   -4.5232   -2.2149    0.5677 C   0  0  0  0  0  0  0  0  0  0  0  0
    2.5634    0.2793   -0.4071 C   0  0  0  0  0  0  0  0  0  0  0  0
    2.7727    0.5565    0.9393 C   0  0  0  0  0  0  0  0  0  0  0  0
    3.2256   -0.8070   -0.9561 C   0  0  0  0  0  0  0  0  0  0  0  0
    3.6259   -0.2496    1.6848 C   0  0  0  0  0  0  0  0  0  0  0  0
    4.2404   -1.3122    1.0423 C   0  0  0  0  0  0  0  0  0  0  0  0
   -2.4854    0.3473   -1.8877 H   0  0  0  0  0  0  0  0  0  0  0  0
   -0.3518   -0.2573   -2.6237 H   0  0  0  0  0  0  0  0  0  0  0  0
    0.0073   -1.1937   -1.1436 H   0  0  0  0  0  0  0  0  0  0  0  0
   -2.7262   -2.0441   -1.3724 H   0  0  0  0  0  0  0  0  0  0  0  0
   -1.9026   -1.8571    0.1833 H   0  0  0  0  0  0  0  0  0  0  0  0
   -3.6423    1.8050    0.1232 H   0  0  0  0  0  0  0  0  0  0  0  0
   -2.6746    1.8510    1.6079 H   0  0  0  0  0  0  0  0  0  0  0  0
   -3.0181   -0.5395    2.0009 H   0  0  0  0  0  0  0  0  0  0  0  0
   -4.5989    0.1890    1.6841 H   0  0  0  0  0  0  0  0  0  0  0  0
    1.8522    2.1855   -1.0222 H   0  0  0  0  0  0  0  0  0  0  0  0
    1.8220    0.9829   -2.3108 H   0  0  0  0  0  0  0  0  0  0  0  0
   -4.7192   -2.8920   -0.2710 H   0  0  0  0  0  0  0  0  0  0  0  0
   -5.4970   -1.9653    1.0033 H   0  0  0  0  0  0  0  0  0  0  0  0
   -3.9375   -2.7567    1.3191 H   0  0  0  0  0  0  0  0  0  0  0  0
    2.2830    1.3989    1.4189 H   0  0  0  0  0  0  0  0  0  0  0  0
    3.1016   -1.0757   -2.0006 H   0  0  0  0  0  0  0  0  0  0  0  0
    3.8049   -0.0517    2.7354 H   0  0  0  0  0  0  0  0  0  0  0  0
    4.9150   -1.9708    1.5793 H   0  0  0  0  0  0  0  0  0  0  0  0
  1 11  2  0  0  0  0
  2  6  1  0  0  0  0
  2  9  1  0  0  0  0
  2 11  1  0  0  0  0
  3  7  1  0  0  0  0
  3 11  1  0  0  0  0
  3 12  1  0  0  0  0
  4  8  1  0  0  0  0
  4 10  1  0  0  0  0
  4 13  1  0  0  0  0
  5 16  1  0  0  0  0
  5 18  2  0  0  0  0
  6  7  1  0  0  0  0
  6  8  1  0  0  0  0
  6 19  1  0  0  0  0
  7 20  1  0  0  0  0
  7 21  1  0  0  0  0
  8 22  1  0  0  0  0
  8 23  1  0  0  0  0
  9 10  1  0  0  0  0
  9 24  1  0  0  0  0
  9 25  1  0  0  0  0
 10 26  1  0  0  0  0
 10 27  1  0  0  0  0
 12 14  1  0  0  0  0
 12 28  1  0  0  0  0
 12 29  1  0  0  0  0
 13 30  1  0  0  0  0
 13 31  1  0  0  0  0
 13 32  1  0  0  0  0
 14 15  1  0  0  0  0
 14 16  2  0  0  0  0
 15 17  2  0  0  0  0
 15 33  1  0  0  0  0
 16 34  1  0  0  0  0
 17 18  1  0  0  0  0
 17 35  1  0  0  0  0
 18 36  1  0  0  0  0
M  END
> <PUBCHEM_COMPOUND_CID>
75537066

> <PUBCHEM_CONFORMER_RMSD>
0.6

> <PUBCHEM_CONFORMER_DIVERSEORDER>
1
3
9
17
22
2
10
25
21
5
8
15
14
12
18
16
7
6
11
24
13
19
23
20
4

> <PUBCHEM_MMFF94_PARTIAL_CHARGES>
22
1 -0.57
10 0.27
11 0.69
12 0.44
13 0.27
14 -0.14
15 -0.15
16 0.16
17 -0.15
18 0.16
2 -0.66
3 -0.66
33 0.15
34 0.15
35 0.15
36 0.15
4 -0.81
5 -0.62
6 0.3
7 0.3
8 0.27
9 0.3

> <PUBCHEM_EFFECTIVE_ROTOR_COUNT>
3.2

> <PUBCHEM_PHARMACOPHORE_FEATURES>
6
1 1 acceptor
1 4 cation
1 5 acceptor
5 2 3 6 7 11 rings
6 2 4 6 8 9 10 rings
6 5 14 15 16 17 18 rings

> <PUBCHEM_HEAVY_ATOM_COUNT>
18

> <PUBCHEM_ATOM_DEF_STEREO_COUNT>
1

> <PUBCHEM_ATOM_UDEF_STEREO_COUNT>
0

> <PUBCHEM_BOND_DEF_STEREO_COUNT>
0

> <PUBCHEM_BOND_UDEF_STEREO_COUNT>
0

> <PUBCHEM_ISOTOPIC_ATOM_COUNT>
0

> <PUBCHEM_COMPONENT_COUNT>
1

> <PUBCHEM_CACTVS_TAUTO_COUNT>
1

> <PUBCHEM_CONFORMER_ID>
04809AAA00000001

> <PUBCHEM_MMFF94_ENERGY>
41.2914

> <PUBCHEM_FEATURE_SELFOVERLAP>
30.542

> <PUBCHEM_SHAPE_FINGERPRINT>
10610426 29 17967810578600625781
10618630 7 18408322181290757516
11543360 7 13262404357911472026
11578080 2 18041825290288349364
11640471 11 11599714052694545012
11769659 78 18040435507621585341
11796584 16 17895190069433530755
12173636 292 9799690377049687457
12251169 10 17346591997859474572
12346177 29 18261101925202260357
12553582 1 18200313350122259751
12633257 1 16630233788484975266
12670546 177 12540703647154243875
12824470 246 18040431100990316915
12892183 10 17775566446335082010
13296908 3 17822282479470550644
13533116 47 18190748724928069355
13675066 3 17988926639023766365
14123260 362 11239997875574410555
1420 369 18334860558270606555
14251764 38 13037535474141688803
14420673 8 17768540387162685398
14848178 5 18115017619259999851
15163728 17 9871199400452391499
15239191 94 17894914014140668298
15342168 16 13182743675416759067
15375462 189 18268151035718037396
15775835 57 10735877270380335206
15885798 251 18410013247491445581
17780758 139 18194668281975345714
1813 80 18040442078905548950
18186145 218 11963390725994303564
193927 3 18113908164397629763
19422 9 18334866025473525093
19862831 5 12251894893368152492
19868273 293 8718824301674657468
200 152 16225766277281434312
20281475 54 18260834834044396733
20291156 8 18260548909423499498
20361792 2 17603302614269775092
20645477 70 17241042222882408247
20671657 53 17313381244615359988
20871999 31 12035741919991840441
21065199 12 17989485199800283498
21475661 188 15194740995184623179
21713013 43 14057298470992019720
22646028 28 18113336405634829394
23382010 3 11674883307282771108
23402539 116 11242250792554262022
23503958 8 18265612083434517970
235170 7 13334740115453877242
23559900 14 18058750004149478884
2748010 2 17558297374473219797
3323516 105 14779553408618894129
3472631 163 9511463316607681203
4072396 5 18131078134546772975
474 4 13183025120112414079
49207404 50 17275110521939001846
5262128 65 14201402638366650638
633830 44 12901818377199952367
76465 3 17749102300913432722
7970288 3 18114462279978454594
90316 7 18342182124527211313
960060 61 15936689345537577039

> <PUBCHEM_SHAPE_MULTIPOLES>
344.64
8.82
1.97
1.47
0.11
0.03
0.04
-5.87
3.09
-0.88
0.29
0.59
0.01
-0.3

> <PUBCHEM_SHAPE_SELFOVERLAP>
728.202

> <PUBCHEM_SHAPE_VOLUME>
194.1

> <PUBCHEM_COORDINATE_TYPE>
2
5
10

$$$$
