7142629
  -OEChem-12032416133D

 49 52  0     1  0  0  0  0  0999 V2000
    6.9319    2.1526    1.1625 Cl  0  0  0  0  0  0  0  0  0  0  0  0
   -3.7620   -1.1679    1.7061 O   0  0  0  0  0  0  0  0  0  0  0  0
   -0.4366    2.4299   -0.2790 O   0  0  0  0  0  0  0  0  0  0  0  0
   -6.7135   -1.2704   -0.9134 O   0  0  0  0  0  0  0  0  0  0  0  0
    3.6014   -1.7950   -1.6365 O   0  0  0  0  0  0  0  0  0  0  0  0
   -2.1874    0.9183   -0.3022 N   0  0  0  0  0  0  0  0  0  0  0  0
   -5.0007    0.2711   -0.6068 N   0  0  0  0  0  0  0  0  0  0  0  0
   -1.4919   -1.0390    1.8051 N   0  0  0  0  0  0  0  0  0  0  0  0
   -2.6286   -0.4695   -0.3078 C   0  0  2  0  0  0  0  0  0  0  0  0
   -3.9604   -0.6636   -1.0438 C   0  0  0  0  0  0  0  0  0  0  0  0
   -3.1592    1.9332   -0.7112 C   0  0  0  0  0  0  0  0  0  0  0  0
   -4.5607    1.6124   -0.2128 C   0  0  0  0  0  0  0  0  0  0  0  0
   -2.6966   -0.8898    1.1520 C   0  0  0  0  0  0  0  0  0  0  0  0
   -0.8609    1.2871   -0.1003 C   0  0  0  0  0  0  0  0  0  0  0  0
    0.1047    0.2654    0.3858 C   0  0  0  0  0  0  0  0  0  0  0  0
   -0.1999   -0.7231    1.3357 C   0  0  0  0  0  0  0  0  0  0  0  0
   -6.3331   -0.1446   -0.5841 C   0  0  0  0  0  0  0  0  0  0  0  0
    1.4406    0.4431   -0.0193 C   0  0  0  0  0  0  0  0  0  0  0  0
    0.8498   -1.4621    1.9090 C   0  0  0  0  0  0  0  0  0  0  0  0
    2.4636   -0.3329    0.5243 C   0  0  0  0  0  0  0  0  0  0  0  0
   -7.3420    0.8801   -0.1261 C   0  0  0  0  0  0  0  0  0  0  0  0
    2.1698   -1.2769    1.4994 C   0  0  0  0  0  0  0  0  0  0  0  0
    3.8302   -0.1389    0.0912 C   0  0  0  0  0  0  0  0  0  0  0  0
    4.3567   -0.8733   -0.9731 C   0  0  0  0  0  0  0  0  0  0  0  0
    4.6285    0.7973    0.7510 C   0  0  0  0  0  0  0  0  0  0  0  0
    5.6767   -0.6722   -1.3761 C   0  0  0  0  0  0  0  0  0  0  0  0
    5.9487    0.9983    0.3480 C   0  0  0  0  0  0  0  0  0  0  0  0
    6.4728    0.2635   -0.7155 C   0  0  0  0  0  0  0  0  0  0  0  0
    2.8582   -1.3330   -2.7617 C   0  0  0  0  0  0  0  0  0  0  0  0
   -1.8748   -1.0891   -0.8094 H   0  0  0  0  0  0  0  0  0  0  0  0
   -3.8198   -0.4829   -2.1170 H   0  0  0  0  0  0  0  0  0  0  0  0
   -4.3133   -1.6954   -0.9355 H   0  0  0  0  0  0  0  0  0  0  0  0
   -3.1391    1.9695   -1.8073 H   0  0  0  0  0  0  0  0  0  0  0  0
   -2.8470    2.9179   -0.3471 H   0  0  0  0  0  0  0  0  0  0  0  0
   -4.5914    1.6476    0.8826 H   0  0  0  0  0  0  0  0  0  0  0  0
   -5.2663    2.3584   -0.5904 H   0  0  0  0  0  0  0  0  0  0  0  0
   -1.5355   -1.5277    2.6963 H   0  0  0  0  0  0  0  0  0  0  0  0
    1.6891    1.2087   -0.7533 H   0  0  0  0  0  0  0  0  0  0  0  0
    0.6434   -2.2170    2.6655 H   0  0  0  0  0  0  0  0  0  0  0  0
   -7.4379    1.6698   -0.8758 H   0  0  0  0  0  0  0  0  0  0  0  0
   -7.0516    1.3055    0.8379 H   0  0  0  0  0  0  0  0  0  0  0  0
   -8.3172    0.3991   -0.0035 H   0  0  0  0  0  0  0  0  0  0  0  0
    2.9531   -1.8820    1.9494 H   0  0  0  0  0  0  0  0  0  0  0  0
    4.2233    1.3728    1.5815 H   0  0  0  0  0  0  0  0  0  0  0  0
    6.0922   -1.2414   -2.2034 H   0  0  0  0  0  0  0  0  0  0  0  0
    7.4998    0.4094   -1.0404 H   0  0  0  0  0  0  0  0  0  0  0  0
    2.5407   -0.2911   -2.6546 H   0  0  0  0  0  0  0  0  0  0  0  0
    1.9708   -1.9624   -2.8705 H   0  0  0  0  0  0  0  0  0  0  0  0
    3.4715   -1.4329   -3.6624 H   0  0  0  0  0  0  0  0  0  0  0  0
  1 27  1  0  0  0  0
  2 13  2  0  0  0  0
  3 14  2  0  0  0  0
  4 17  2  0  0  0  0
  5 24  1  0  0  0  0
  5 29  1  0  0  0  0
  6  9  1  0  0  0  0
  6 11  1  0  0  0  0
  6 14  1  0  0  0  0
  7 10  1  0  0  0  0
  7 12  1  0  0  0  0
  7 17  1  0  0  0  0
  8 13  1  0  0  0  0
  8 16  1  0  0  0  0
  8 37  1  0  0  0  0
  9 10  1  0  0  0  0
  9 13  1  0  0  0  0
  9 30  1  0  0  0  0
 10 31  1  0  0  0  0
 10 32  1  0  0  0  0
 11 12  1  0  0  0  0
 11 33  1  0  0  0  0
 11 34  1  0  0  0  0
 12 35  1  0  0  0  0
 12 36  1  0  0  0  0
 14 15  1  0  0  0  0
 15 16  2  0  0  0  0
 15 18  1  0  0  0  0
 16 19  1  0  0  0  0
 17 21  1  0  0  0  0
 18 20  2  0  0  0  0
 18 38  1  0  0  0  0
 19 22  2  0  0  0  0
 19 39  1  0  0  0  0
 20 22  1  0  0  0  0
 20 23  1  0  0  0  0
 21 40  1  0  0  0  0
 21 41  1  0  0  0  0
 21 42  1  0  0  0  0
 22 43  1  0  0  0  0
 23 24  2  0  0  0  0
 23 25  1  0  0  0  0
 24 26  1  0  0  0  0
 25 27  2  0  0  0  0
 25 44  1  0  0  0  0
 26 28  2  0  0  0  0
 26 45  1  0  0  0  0
 27 28  1  0  0  0  0
 28 46  1  0  0  0  0
 29 47  1  0  0  0  0
 29 48  1  0  0  0  0
 29 49  1  0  0  0  0
M  END
> <PUBCHEM_COMPOUND_CID>
7142629

> <PUBCHEM_CONFORMER_RMSD>
0.8

> <PUBCHEM_CONFORMER_DIVERSEORDER>
1
10
8
9
6
4
7
12
5
3
2
11

> <PUBCHEM_MMFF94_PARTIAL_CHARGES>
34
1 -0.18
10 0.3
11 0.3
12 0.3
13 0.57
14 0.54
15 0.09
16 0.12
17 0.57
18 -0.15
19 -0.15
2 -0.57
21 0.06
22 -0.15
24 0.08
25 -0.15
26 -0.15
27 0.18
28 -0.15
29 0.28
3 -0.57
37 0.37
38 0.15
39 0.15
4 -0.57
43 0.15
44 0.15
45 0.15
46 0.15
5 -0.36
6 -0.66
7 -0.66
8 -0.55
9 0.36

> <PUBCHEM_EFFECTIVE_ROTOR_COUNT>
4

> <PUBCHEM_PHARMACOPHORE_FEATURES>
9
1 2 acceptor
1 3 acceptor
1 4 acceptor
1 5 acceptor
1 8 donor
6 15 16 18 19 20 22 rings
6 23 24 25 26 27 28 rings
6 6 7 9 10 11 12 rings
7 6 8 9 13 14 15 16 rings

> <PUBCHEM_HEAVY_ATOM_COUNT>
29

> <PUBCHEM_ATOM_DEF_STEREO_COUNT>
1

> <PUBCHEM_ATOM_UDEF_STEREO_COUNT>
0

> <PUBCHEM_BOND_DEF_STEREO_COUNT>
0

> <PUBCHEM_BOND_UDEF_STEREO_COUNT>
0

> <PUBCHEM_ISOTOPIC_ATOM_COUNT>
0

> <PUBCHEM_COMPONENT_COUNT>
1

> <PUBCHEM_CACTVS_TAUTO_COUNT>
3

> <PUBCHEM_CONFORMER_ID>
006CFCE500000001

> <PUBCHEM_MMFF94_ENERGY>
113.0247

> <PUBCHEM_FEATURE_SELFOVERLAP>
45.701

> <PUBCHEM_SHAPE_FINGERPRINT>
11135609 187 17489866055071028338
11181472 205 16128108745761959865
11578080 2 16342318856496787305
12166972 35 16630520765399143289
12236239 1 17968371256653191957
12422481 6 15574979647353444470
12516196 113 18343581854342298489
12730499 353 17917989482506605260
12788726 201 18264765468008183809
12838862 33 17749653165488409005
13533116 47 17968370140268098906
1361 2 18202279247512843380
13911987 19 17631741607688474888
14294032 229 17023465222760205845
14767858 380 17822008709881245343
15082195 135 18338532906355215964
15131766 46 13697025988882549246
15183329 4 17417813903278793475
15348495 7 10809639115830751861
17349148 13 16588032316392539810
173720 79 16443059500261503952
17980427 23 17023466468980930174
1813 80 14333406749181388312
19319366 153 17095516271573949243
21033648 29 18187922954296000136
21150785 3 17988922301170087883
21267235 1 18336264639847601911
22122407 14 13984957194216472540
23198884 109 18131071515759518377
23516275 100 18192419982413748852
23516275 137 16414659123448879135
23559900 14 18114179803999692989
23569914 152 17332232100954178006
23569917 315 17167863032801383290
2838139 119 14273449297708272911
3472631 163 17676498276215396524
34797466 226 18202282515798306652
3633792 109 17560804299644333969
4093350 32 18060138747259192729
4098825 35 17703794674144836617
4325135 7 18342174484154451092
4340502 62 14201397153709231833
46194498 28 18202560700656209660
465052 167 14189571970286651407
474 4 15791740676187055938
5265222 85 17346310552915724637
57527295 17 17980502070339159654

> <PUBCHEM_SHAPE_MULTIPOLES>
560.26
17.84
1.88
1.77
4.79
0.61
-0.17
3.81
4.42
-1.01
0.33
-0.82
-1.03
1.92

> <PUBCHEM_SHAPE_SELFOVERLAP>
1216.24

> <PUBCHEM_SHAPE_VOLUME>
304.4

> <PUBCHEM_COORDINATE_TYPE>
2
5
10

$$$$
