11884450
  -OEChem-12032416363D

 60 64  0     1  0  0  0  0  0999 V2000
    3.7559    0.9152    1.3951 S   0  0  0  0  0  0  0  0  0  0  0  0
    3.7722    0.5754    2.8021 O   0  0  0  0  0  0  0  0  0  0  0  0
    3.2155    2.1790    0.9404 O   0  0  0  0  0  0  0  0  0  0  0  0
   -1.6450   -1.9071    1.3641 O   0  0  0  0  0  0  0  0  0  0  0  0
   -4.1679    0.1479   -2.1672 O   0  0  0  0  0  0  0  0  0  0  0  0
   -9.2827    0.9993    1.3975 O   0  0  0  0  0  0  0  0  0  0  0  0
    3.0135   -0.3549    0.5207 N   0  0  2  0  0  0  0  0  0  0  0  0
    0.1767   -1.6182   -0.0706 N   0  0  0  0  0  0  0  0  0  0  0  0
   -3.2345   -0.1769   -0.0616 N   0  0  0  0  0  0  0  0  0  0  0  0
    4.2290    3.0451   -1.6465 N   0  0  0  0  0  0  0  0  0  0  0  0
    2.4320   -2.7730    0.3010 C   0  0  1  0  0  0  0  0  0  0  0  0
    2.1342   -1.2693   -1.6181 C   0  0  2  0  0  0  0  0  0  0  0  0
    2.5719   -2.6739   -1.2123 C   0  0  0  0  0  0  0  0  0  0  0  0
    3.3265   -1.7331    0.9954 C   0  0  0  0  0  0  0  0  0  0  0  0
    3.0659   -0.2311   -0.9668 C   0  0  0  0  0  0  0  0  0  0  0  0
    0.9531   -2.6170    0.6762 C   0  0  0  0  0  0  0  0  0  0  0  0
    0.6932   -1.0103   -1.2193 C   0  0  0  0  0  0  0  0  0  0  0  0
   -0.0751   -0.1859   -1.9510 C   0  0  0  0  0  0  0  0  0  0  0  0
   -1.1419   -1.3833    0.3690 C   0  0  0  0  0  0  0  0  0  0  0  0
   -1.9572   -0.4403   -0.4607 C   0  0  0  0  0  0  0  0  0  0  0  0
   -1.4261    0.1040   -1.5605 C   0  0  0  0  0  0  0  0  0  0  0  0
    5.4092    0.7826    0.7895 C   0  0  0  0  0  0  0  0  0  0  0  0
    5.8260    1.4831   -0.3341 C   0  0  0  0  0  0  0  0  0  0  0  0
    6.2828   -0.0510    1.4754 C   0  0  0  0  0  0  0  0  0  0  0  0
    7.1406    1.3480   -0.7805 C   0  0  0  0  0  0  0  0  0  0  0  0
    7.5975   -0.1861    1.0291 C   0  0  0  0  0  0  0  0  0  0  0  0
   -4.2693    0.1030   -0.9436 C   0  0  0  0  0  0  0  0  0  0  0  0
    8.0264    0.5134   -0.0988 C   0  0  0  0  0  0  0  0  0  0  0  0
    4.9434    2.3463   -1.0593 C   0  0  0  0  0  0  0  0  0  0  0  0
   -5.5982    0.3418   -0.3228 C   0  0  0  0  0  0  0  0  0  0  0  0
   -6.7337    0.0703   -1.0572 C   0  0  0  0  0  0  0  0  0  0  0  0
   -5.6538    0.8264    0.9674 C   0  0  0  0  0  0  0  0  0  0  0  0
   -7.9815    0.2936   -0.4748 C   0  0  0  0  0  0  0  0  0  0  0  0
   -6.9015    1.0495    1.5497 C   0  0  0  0  0  0  0  0  0  0  0  0
   -8.0654    0.7832    0.8286 C   0  0  0  0  0  0  0  0  0  0  0  0
  -10.4317    0.7040    0.6047 C   0  0  0  0  0  0  0  0  0  0  0  0
    2.7646   -3.7646    0.6329 H   0  0  0  0  0  0  0  0  0  0  0  0
    2.2335   -1.1848   -2.7084 H   0  0  0  0  0  0  0  0  0  0  0  0
    1.9548   -3.4335   -1.7085 H   0  0  0  0  0  0  0  0  0  0  0  0
    3.6103   -2.8562   -1.5148 H   0  0  0  0  0  0  0  0  0  0  0  0
    3.1740   -1.8007    2.0777 H   0  0  0  0  0  0  0  0  0  0  0  0
    4.3733   -1.9716    0.7802 H   0  0  0  0  0  0  0  0  0  0  0  0
    4.0823   -0.4041   -1.3331 H   0  0  0  0  0  0  0  0  0  0  0  0
    2.7297    0.7651   -1.2664 H   0  0  0  0  0  0  0  0  0  0  0  0
    0.4451   -3.5754    0.5014 H   0  0  0  0  0  0  0  0  0  0  0  0
    0.8466   -2.4120    1.7489 H   0  0  0  0  0  0  0  0  0  0  0  0
    0.3062    0.3057   -2.8400 H   0  0  0  0  0  0  0  0  0  0  0  0
   -1.9388    0.8281   -2.1829 H   0  0  0  0  0  0  0  0  0  0  0  0
   -3.4630   -0.4397    0.8935 H   0  0  0  0  0  0  0  0  0  0  0  0
    5.9745   -0.6104    2.3536 H   0  0  0  0  0  0  0  0  0  0  0  0
    7.4914    1.8854   -1.6585 H   0  0  0  0  0  0  0  0  0  0  0  0
    8.2869   -0.8369    1.5589 H   0  0  0  0  0  0  0  0  0  0  0  0
    9.0498    0.4077   -0.4466 H   0  0  0  0  0  0  0  0  0  0  0  0
   -6.6849   -0.3164   -2.0708 H   0  0  0  0  0  0  0  0  0  0  0  0
   -4.7707    1.0727    1.5482 H   0  0  0  0  0  0  0  0  0  0  0  0
   -8.8446    0.0642   -1.0905 H   0  0  0  0  0  0  0  0  0  0  0  0
   -6.9610    1.4368    2.5633 H   0  0  0  0  0  0  0  0  0  0  0  0
  -10.4855   -0.3611    0.3551 H   0  0  0  0  0  0  0  0  0  0  0  0
  -10.4819    1.3418   -0.2843 H   0  0  0  0  0  0  0  0  0  0  0  0
  -11.3123    0.9344    1.2134 H   0  0  0  0  0  0  0  0  0  0  0  0
  1  2  2  0  0  0  0
  1  3  2  0  0  0  0
  1  7  1  0  0  0  0
  1 22  1  0  0  0  0
  4 19  2  0  0  0  0
  5 27  2  0  0  0  0
  6 35  1  0  0  0  0
  6 36  1  0  0  0  0
  7 14  1  0  0  0  0
  7 15  1  0  0  0  0
  8 16  1  0  0  0  0
  8 17  1  0  0  0  0
  8 19  1  0  0  0  0
  9 20  1  0  0  0  0
  9 27  1  0  0  0  0
  9 49  1  0  0  0  0
 10 29  3  0  0  0  0
 11 13  1  0  0  0  0
 11 14  1  0  0  0  0
 11 16  1  0  0  0  0
 11 37  1  0  0  0  0
 12 13  1  0  0  0  0
 12 15  1  0  0  0  0
 12 17  1  0  0  0  0
 12 38  1  0  0  0  0
 13 39  1  0  0  0  0
 13 40  1  0  0  0  0
 14 41  1  0  0  0  0
 14 42  1  0  0  0  0
 15 43  1  0  0  0  0
 15 44  1  0  0  0  0
 16 45  1  0  0  0  0
 16 46  1  0  0  0  0
 17 18  2  0  0  0  0
 18 21  1  0  0  0  0
 18 47  1  0  0  0  0
 19 20  1  0  0  0  0
 20 21  2  0  0  0  0
 21 48  1  0  0  0  0
 22 23  1  0  0  0  0
 22 24  2  0  0  0  0
 23 25  2  0  0  0  0
 23 29  1  0  0  0  0
 24 26  1  0  0  0  0
 24 50  1  0  0  0  0
 25 28  1  0  0  0  0
 25 51  1  0  0  0  0
 26 28  2  0  0  0  0
 26 52  1  0  0  0  0
 27 30  1  0  0  0  0
 28 53  1  0  0  0  0
 30 31  2  0  0  0  0
 30 32  1  0  0  0  0
 31 33  1  0  0  0  0
 31 54  1  0  0  0  0
 32 34  2  0  0  0  0
 32 55  1  0  0  0  0
 33 35  2  0  0  0  0
 33 56  1  0  0  0  0
 34 35  1  0  0  0  0
 34 57  1  0  0  0  0
 36 58  1  0  0  0  0
 36 59  1  0  0  0  0
 36 60  1  0  0  0  0
M  END
> <PUBCHEM_COMPOUND_CID>
11884450

> <PUBCHEM_CONFORMER_RMSD>
1

> <PUBCHEM_CONFORMER_DIVERSEORDER>
2
16
18
7
21
4
17
19
1
10
6
20
15
9
22
12
8
3
11
14
5
13

> <PUBCHEM_MMFF94_PARTIAL_CHARGES>
45
1 1.45
10 -0.56
12 0.14
14 0.36
15 0.36
16 0.3
17 -0.03
18 -0.15
19 0.62
2 -0.65
20 0.12
21 -0.15
22 -0.01
23 0.07
24 -0.15
25 -0.15
26 -0.15
27 0.54
28 -0.15
29 0.48
3 -0.65
30 0.09
31 -0.15
32 -0.15
33 -0.15
34 -0.15
35 0.08
36 0.28
4 -0.57
47 0.15
48 0.15
49 0.37
5 -0.57
50 0.15
51 0.15
52 0.15
53 0.15
54 0.15
55 0.15
56 0.15
57 0.15
6 -0.36
7 -0.85
8 -0.47
9 -0.54

> <PUBCHEM_EFFECTIVE_ROTOR_COUNT>
7

> <PUBCHEM_PHARMACOPHORE_FEATURES>
12
1 10 acceptor
1 2 acceptor
1 3 acceptor
1 4 acceptor
1 5 acceptor
1 6 acceptor
1 9 donor
6 22 23 24 25 26 28 rings
6 30 31 32 33 34 35 rings
6 7 11 12 13 14 15 rings
6 8 11 12 13 16 17 rings
6 8 17 18 19 20 21 rings

> <PUBCHEM_HEAVY_ATOM_COUNT>
36

> <PUBCHEM_ATOM_DEF_STEREO_COUNT>
2

> <PUBCHEM_ATOM_UDEF_STEREO_COUNT>
0

> <PUBCHEM_BOND_DEF_STEREO_COUNT>
0

> <PUBCHEM_BOND_UDEF_STEREO_COUNT>
0

> <PUBCHEM_ISOTOPIC_ATOM_COUNT>
0

> <PUBCHEM_COMPONENT_COUNT>
1

> <PUBCHEM_CACTVS_TAUTO_COUNT>
2

> <PUBCHEM_CONFORMER_ID>
00B557A200000002

> <PUBCHEM_MMFF94_ENERGY>
106.8953

> <PUBCHEM_FEATURE_SELFOVERLAP>
62.504

> <PUBCHEM_SHAPE_FINGERPRINT>
10 15 17530965787370274923
10165383 225 18408040724058476918
10533779 47 17604149220642425762
106641 1 16225766320104461342
10670039 82 14476969969414132795
11135609 127 14189277310451361440
11411753 29 18118967988107031551
11456790 92 18187072928628358656
11621639 336 17274269322909605480
11719270 70 16371010668701035395
11828532 37 16199297862308852214
1200032 147 18060702779576359247
13540713 4 17316185948813157999
13751561 76 17894918390818156866
15183329 4 15985109608457235914
15347590 135 17894351043293016897
1577012 14 17489582339081199351
19302320 297 18186808014523503524
20105231 36 16515683313245426034
21033648 29 18265602355760646202
21057603 130 12035735348802485258
21792934 111 17022620858734464981
22149856 69 17750250106345539849
23523766 6 15694932946506300798
23576562 1 14763760033105605537
24771293 8 18260547827624478437
24893992 56 18201718487813161155
2838139 119 18059848489243108224
3178227 256 18113614599974061076
3711267 37 17418103118040312729
394071 54 18260270758815189173
4093350 32 17846785070151753031
4112364 45 16878231964955970924
439807 62 11312059846041582024
445580 126 18411700980280229013
504579 68 14620797094191610059
5104073 3 17604706634979035749
5385378 56 18341045238647815866
59682541 35 17240484719427436121
59682541 52 11959731572967067228
6438161 24 13551194390420020505
9962374 69 11819286580696090651

> <PUBCHEM_SHAPE_MULTIPOLES>
695.44
27.14
2.38
1.9
50.53
0.66
0.03
-16.23
7.45
-3.6
-0.17
-0.56
-0.27
-1.51

> <PUBCHEM_SHAPE_SELFOVERLAP>
1517.689

> <PUBCHEM_SHAPE_VOLUME>
376

> <PUBCHEM_COORDINATE_TYPE>
2
5
10

$$$$
