11885889
  -OEChem-12032416113D

 53 57  0     1  0  0  0  0  0999 V2000
   -1.1545   -2.2152    0.2573 S   0  0  0  0  0  0  0  0  0  0  0  0
   -0.1973    2.4875    1.5968 O   0  0  0  0  0  0  0  0  0  0  0  0
   -3.5936   -1.3253    2.4276 O   0  0  0  0  0  0  0  0  0  0  0  0
    2.6950   -0.3970   -0.9768 O   0  0  0  0  0  0  0  0  0  0  0  0
   -4.1328   -0.3277    0.3809 N   0  0  0  0  0  0  0  0  0  0  0  0
   -1.8180    1.8157    0.0536 N   0  0  0  0  0  0  0  0  0  0  0  0
    1.8706    1.4920    0.0855 N   0  0  0  0  0  0  0  0  0  0  0  0
    4.0850    0.9502    0.3505 N   0  0  0  0  0  0  0  0  0  0  0  0
   -4.3270    2.1525    0.4458 C   0  0  1  0  0  0  0  0  0  0  0  0
   -3.5467    1.0402   -1.6071 C   0  0  2  0  0  0  0  0  0  0  0  0
   -4.4173    2.1779   -1.0761 C   0  0  0  0  0  0  0  0  0  0  0  0
   -4.8304    0.8038    0.9913 C   0  0  0  0  0  0  0  0  0  0  0  0
   -2.8779    2.4381    0.8596 C   0  0  0  0  0  0  0  0  0  0  0  0
   -4.0870   -0.3084   -1.0902 C   0  0  0  0  0  0  0  0  0  0  0  0
   -2.1024    1.2113   -1.1753 C   0  0  0  0  0  0  0  0  0  0  0  0
   -1.1053    0.7519   -1.9500 C   0  0  0  0  0  0  0  0  0  0  0  0
   -0.4984    1.9489    0.5306 C   0  0  0  0  0  0  0  0  0  0  0  0
   -3.5585   -1.3038    1.1984 C   0  0  0  0  0  0  0  0  0  0  0  0
    0.5814    1.3994   -0.3494 C   0  0  0  0  0  0  0  0  0  0  0  0
    0.2625    0.8483   -1.5253 C   0  0  0  0  0  0  0  0  0  0  0  0
   -2.8281   -2.3988    0.5518 C   0  0  0  0  0  0  0  0  0  0  0  0
   -3.3058   -3.6132    0.1238 C   0  0  0  0  0  0  0  0  0  0  0  0
    2.8781    0.5789   -0.2524 C   0  0  0  0  0  0  0  0  0  0  0  0
   -2.2790   -4.4115   -0.4580 C   0  0  0  0  0  0  0  0  0  0  0  0
   -1.0591   -3.7718   -0.4498 C   0  0  0  0  0  0  0  0  0  0  0  0
    5.3369    0.2980    0.2624 C   0  0  0  0  0  0  0  0  0  0  0  0
    6.4252    0.8252    0.9383 C   0  0  0  0  0  0  0  0  0  0  0  0
    5.4497   -0.8542   -0.4985 C   0  0  0  0  0  0  0  0  0  0  0  0
    7.6601    0.1825    0.8512 C   0  0  0  0  0  0  0  0  0  0  0  0
    6.6846   -1.4968   -0.5857 C   0  0  0  0  0  0  0  0  0  0  0  0
    7.7898   -0.9786    0.0892 C   0  0  0  0  0  0  0  0  0  0  0  0
   -4.9667    2.9389    0.8653 H   0  0  0  0  0  0  0  0  0  0  0  0
   -3.6101    1.0426   -2.7030 H   0  0  0  0  0  0  0  0  0  0  0  0
   -4.0766    3.1445   -1.4676 H   0  0  0  0  0  0  0  0  0  0  0  0
   -5.4572    2.0483   -1.4001 H   0  0  0  0  0  0  0  0  0  0  0  0
   -4.7333    0.7766    2.0817 H   0  0  0  0  0  0  0  0  0  0  0  0
   -5.8955    0.6821    0.7595 H   0  0  0  0  0  0  0  0  0  0  0  0
   -2.7011    3.5204    0.7930 H   0  0  0  0  0  0  0  0  0  0  0  0
   -2.7193    2.1714    1.9121 H   0  0  0  0  0  0  0  0  0  0  0  0
   -5.1163   -0.4576   -1.4393 H   0  0  0  0  0  0  0  0  0  0  0  0
   -3.4971   -1.1353   -1.4917 H   0  0  0  0  0  0  0  0  0  0  0  0
   -1.3019    0.2701   -2.9022 H   0  0  0  0  0  0  0  0  0  0  0  0
    0.9888    0.4825   -2.2409 H   0  0  0  0  0  0  0  0  0  0  0  0
    2.0460    2.1033    0.8784 H   0  0  0  0  0  0  0  0  0  0  0  0
   -4.3393   -3.9211    0.2193 H   0  0  0  0  0  0  0  0  0  0  0  0
   -2.4276   -5.4043   -0.8624 H   0  0  0  0  0  0  0  0  0  0  0  0
   -0.1163   -4.1436   -0.8255 H   0  0  0  0  0  0  0  0  0  0  0  0
    4.0682    1.7921    0.9207 H   0  0  0  0  0  0  0  0  0  0  0  0
    6.3352    1.7291    1.5345 H   0  0  0  0  0  0  0  0  0  0  0  0
    4.6440   -1.3167   -1.0489 H   0  0  0  0  0  0  0  0  0  0  0  0
    8.5207    0.5861    1.3766 H   0  0  0  0  0  0  0  0  0  0  0  0
    6.7871   -2.4011   -1.1788 H   0  0  0  0  0  0  0  0  0  0  0  0
    8.7513   -1.4790    0.0214 H   0  0  0  0  0  0  0  0  0  0  0  0
  1 21  1  0  0  0  0
  1 25  1  0  0  0  0
  2 17  2  0  0  0  0
  3 18  2  0  0  0  0
  4 23  2  0  0  0  0
  5 12  1  0  0  0  0
  5 14  1  0  0  0  0
  5 18  1  0  0  0  0
  6 13  1  0  0  0  0
  6 15  1  0  0  0  0
  6 17  1  0  0  0  0
  7 19  1  0  0  0  0
  7 23  1  0  0  0  0
  7 44  1  0  0  0  0
  8 23  1  0  0  0  0
  8 26  1  0  0  0  0
  8 48  1  0  0  0  0
  9 11  1  0  0  0  0
  9 12  1  0  0  0  0
  9 13  1  0  0  0  0
  9 32  1  0  0  0  0
 10 11  1  0  0  0  0
 10 14  1  0  0  0  0
 10 15  1  0  0  0  0
 10 33  1  0  0  0  0
 11 34  1  0  0  0  0
 11 35  1  0  0  0  0
 12 36  1  0  0  0  0
 12 37  1  0  0  0  0
 13 38  1  0  0  0  0
 13 39  1  0  0  0  0
 14 40  1  0  0  0  0
 14 41  1  0  0  0  0
 15 16  2  0  0  0  0
 16 20  1  0  0  0  0
 16 42  1  0  0  0  0
 17 19  1  0  0  0  0
 18 21  1  0  0  0  0
 19 20  2  0  0  0  0
 20 43  1  0  0  0  0
 21 22  2  0  0  0  0
 22 24  1  0  0  0  0
 22 45  1  0  0  0  0
 24 25  2  0  0  0  0
 24 46  1  0  0  0  0
 25 47  1  0  0  0  0
 26 27  2  0  0  0  0
 26 28  1  0  0  0  0
 27 29  1  0  0  0  0
 27 49  1  0  0  0  0
 28 30  2  0  0  0  0
 28 50  1  0  0  0  0
 29 31  2  0  0  0  0
 29 51  1  0  0  0  0
 30 31  1  0  0  0  0
 30 52  1  0  0  0  0
 31 53  1  0  0  0  0
M  END
> <PUBCHEM_COMPOUND_CID>
11885889

> <PUBCHEM_CONFORMER_RMSD>
0.8

> <PUBCHEM_CONFORMER_DIVERSEORDER>
1
31
28
25
27
5
32
33
21
29
11
24
22
30
37
10
12
39
9
26
36
23
17
18
8
35
3
34
6
38
16
13
14
20
2
4
7
15
19

> <PUBCHEM_MMFF94_PARTIAL_CHARGES>
41
1 -0.08
10 0.14
12 0.3
13 0.3
14 0.3
15 -0.03
16 -0.15
17 0.62
18 0.71
19 0.12
2 -0.57
20 -0.15
21 -0.05
22 -0.15
23 0.69
24 -0.15
25 -0.11
26 0.12
27 -0.15
28 -0.15
29 -0.15
3 -0.57
30 -0.15
31 -0.15
4 -0.57
42 0.15
43 0.15
44 0.37
45 0.15
46 0.15
47 0.15
48 0.37
49 0.15
5 -0.66
50 0.15
51 0.15
52 0.15
53 0.15
6 -0.47
7 -0.54
8 -0.55

> <PUBCHEM_EFFECTIVE_ROTOR_COUNT>
7

> <PUBCHEM_PHARMACOPHORE_FEATURES>
10
1 2 acceptor
1 3 acceptor
1 4 acceptor
1 7 donor
1 8 donor
5 1 21 22 24 25 rings
6 26 27 28 29 30 31 rings
6 5 9 10 11 12 14 rings
6 6 15 16 17 19 20 rings
6 6 9 10 11 13 15 rings

> <PUBCHEM_HEAVY_ATOM_COUNT>
31

> <PUBCHEM_ATOM_DEF_STEREO_COUNT>
2

> <PUBCHEM_ATOM_UDEF_STEREO_COUNT>
0

> <PUBCHEM_BOND_DEF_STEREO_COUNT>
0

> <PUBCHEM_BOND_UDEF_STEREO_COUNT>
0

> <PUBCHEM_ISOTOPIC_ATOM_COUNT>
0

> <PUBCHEM_COMPONENT_COUNT>
1

> <PUBCHEM_CACTVS_TAUTO_COUNT>
3

> <PUBCHEM_CONFORMER_ID>
00B55D4100000001

> <PUBCHEM_MMFF94_ENERGY>
89.6272

> <PUBCHEM_FEATURE_SELFOVERLAP>
52.381

> <PUBCHEM_SHAPE_FINGERPRINT>
10483366 6 18267285691179100511
10675989 125 17326603701211822989
10864689 126 18122350082301951742
11112241 14 17988368053095046607
11315181 36 18202275896752998436
11524674 6 18341327816808370015
12633257 1 17842304693992430161
12643181 29 18408880708119233154
12712778 12 18410298033613758598
14659021 117 18272075132935927533
14844126 61 18337111262946577459
14856354 85 18342459270308341324
14866123 147 18409730698673320843
14950920 106 17702675491360837938
15021287 119 17095527309744991940
15183329 4 15574713608520565090
15348495 7 18271802467327843048
15352257 5 18261674771430419898
15361156 5 17967542302680771428
15537594 2 17530962458665074056
15799311 1 18338253608683746172
16110190 28 18335425703036250910
17627616 140 18189606168410773810
19958102 18 18335416821192024230
20775530 9 17547588423076399903
21927370 108 9727053422521407957
23516275 137 17972900063655341610
23559900 14 18340197570669333112
244849 19 17559417811055211182
249057 3 17967810531446150413
3383291 50 18411699915730518835
397830 11 18269263729566043072
4015057 19 18059277872694384264
4073 2 18341889698221983638
445580 160 18410578379731611958
484985 159 18335691789156280743
5080951 261 18115565133411636806
5265222 85 18261401069463404316
57527306 92 16630252425028386625
59755656 520 18335978675654043166
7226269 152 18273211958939403952

> <PUBCHEM_SHAPE_MULTIPOLES>
604.28
16.33
4.05
1.49
42.75
4.81
-0.03
0.99
-2.75
-5.91
-0.15
-1.33
-0.33
1.12

> <PUBCHEM_SHAPE_SELFOVERLAP>
1317.054

> <PUBCHEM_SHAPE_VOLUME>
327.1

> <PUBCHEM_COORDINATE_TYPE>
2
5
10

$$$$
