56774637
  -OEChem-12032416213D

 55 57  0     1  0  0  0  0  0999 V2000
    6.2674   -0.6228    0.7954 S   0  0  0  0  0  0  0  0  0  0  0  0
   -0.3935    2.3493    1.2893 O   0  0  0  0  0  0  0  0  0  0  0  0
   -0.5548    0.2705   -2.3653 O   0  0  0  0  0  0  0  0  0  0  0  0
   -3.7839    2.5244    0.0583 O   0  0  0  0  0  0  0  0  0  0  0  0
    7.6748   -0.9188    0.6023 O   0  0  0  0  0  0  0  0  0  0  0  0
    5.8514    0.6506    1.3489 O   0  0  0  0  0  0  0  0  0  0  0  0
   -2.2355    0.7992   -0.1474 N   0  0  0  0  0  0  0  0  0  0  0  0
    5.4344   -0.9569   -0.6744 N   0  0  0  0  0  0  0  0  0  0  0  0
   -4.3766   -0.4073   -0.2485 C   0  0  0  0  0  0  0  0  0  0  0  0
   -5.2772   -1.2733   -1.1397 C   0  0  0  0  0  0  0  0  0  0  0  0
   -4.0520   -1.1294    1.0661 C   0  0  0  0  0  0  0  0  0  0  0  0
   -3.0940   -0.0266   -0.9858 C   0  0  0  0  0  0  0  0  0  0  0  0
   -6.5426   -1.7113   -0.4058 C   0  0  0  0  0  0  0  0  0  0  0  0
   -5.3194   -1.5679    1.7963 C   0  0  0  0  0  0  0  0  0  0  0  0
   -6.2161   -2.4210    0.9046 C   0  0  0  0  0  0  0  0  0  0  0  0
   -0.8422    0.3701    0.0267 C   0  0  1  0  0  0  0  0  0  0  0  0
    0.0089    0.8022   -1.1709 C   0  0  1  0  0  0  0  0  0  0  0  0
   -0.2827    0.9316    1.3284 C   0  0  0  0  0  0  0  0  0  0  0  0
   -2.6841    2.0333    0.3188 C   0  0  0  0  0  0  0  0  0  0  0  0
   -1.7453    2.7505    1.2825 C   0  0  0  0  0  0  0  0  0  0  0  0
    1.4374    0.3390   -1.0392 C   0  0  0  0  0  0  0  0  0  0  0  0
    2.4754    1.2708   -1.0400 C   0  0  0  0  0  0  0  0  0  0  0  0
    1.7214   -1.0213   -0.9174 C   0  0  0  0  0  0  0  0  0  0  0  0
    3.7973    0.8424   -0.9192 C   0  0  0  0  0  0  0  0  0  0  0  0
    3.0433   -1.4497   -0.7968 C   0  0  0  0  0  0  0  0  0  0  0  0
    4.0812   -0.5178   -0.7976 C   0  0  0  0  0  0  0  0  0  0  0  0
    5.6068   -1.9099    1.8303 C   0  0  0  0  0  0  0  0  0  0  0  0
   -4.9535    0.4906   -0.0003 H   0  0  0  0  0  0  0  0  0  0  0  0
   -5.5574   -0.7163   -2.0417 H   0  0  0  0  0  0  0  0  0  0  0  0
   -4.7285   -2.1634   -1.4731 H   0  0  0  0  0  0  0  0  0  0  0  0
   -3.4295   -2.0107    0.8643 H   0  0  0  0  0  0  0  0  0  0  0  0
   -3.4786   -0.4828    1.7397 H   0  0  0  0  0  0  0  0  0  0  0  0
   -3.3384    0.5527   -1.8842 H   0  0  0  0  0  0  0  0  0  0  0  0
   -2.5602   -0.9310   -1.2987 H   0  0  0  0  0  0  0  0  0  0  0  0
   -7.1294   -2.3769   -1.0488 H   0  0  0  0  0  0  0  0  0  0  0  0
   -7.1676   -0.8336   -0.1999 H   0  0  0  0  0  0  0  0  0  0  0  0
   -5.8730   -0.6818    2.1306 H   0  0  0  0  0  0  0  0  0  0  0  0
   -5.0495   -2.1335    2.6953 H   0  0  0  0  0  0  0  0  0  0  0  0
   -7.1442   -2.6605    1.4357 H   0  0  0  0  0  0  0  0  0  0  0  0
   -5.7161   -3.3733    0.6889 H   0  0  0  0  0  0  0  0  0  0  0  0
   -0.8656   -0.7231    0.1165 H   0  0  0  0  0  0  0  0  0  0  0  0
   -0.0260    1.8930   -1.2822 H   0  0  0  0  0  0  0  0  0  0  0  0
   -0.8388    0.5490    2.1943 H   0  0  0  0  0  0  0  0  0  0  0  0
    0.7665    0.6698    1.4907 H   0  0  0  0  0  0  0  0  0  0  0  0
   -1.7683    3.8179    1.0392 H   0  0  0  0  0  0  0  0  0  0  0  0
   -2.1536    2.6320    2.2931 H   0  0  0  0  0  0  0  0  0  0  0  0
    0.0890    0.3870   -3.0847 H   0  0  0  0  0  0  0  0  0  0  0  0
    2.2697    2.3335   -1.1358 H   0  0  0  0  0  0  0  0  0  0  0  0
    0.9288   -1.7642   -0.9263 H   0  0  0  0  0  0  0  0  0  0  0  0
    4.5958    1.5797   -0.9343 H   0  0  0  0  0  0  0  0  0  0  0  0
    3.2530   -2.5122   -0.7040 H   0  0  0  0  0  0  0  0  0  0  0  0
    5.6076   -1.8900   -1.0718 H   0  0  0  0  0  0  0  0  0  0  0  0
    6.1123   -1.8552    2.7972 H   0  0  0  0  0  0  0  0  0  0  0  0
    4.5363   -1.7498    1.9676 H   0  0  0  0  0  0  0  0  0  0  0  0
    5.8049   -2.8775    1.3656 H   0  0  0  0  0  0  0  0  0  0  0  0
  1  5  2  0  0  0  0
  1  6  2  0  0  0  0
  1  8  1  0  0  0  0
  1 27  1  0  0  0  0
  2 18  1  0  0  0  0
  2 20  1  0  0  0  0
  3 17  1  0  0  0  0
  3 47  1  0  0  0  0
  4 19  2  0  0  0  0
  7 12  1  0  0  0  0
  7 16  1  0  0  0  0
  7 19  1  0  0  0  0
  8 26  1  0  0  0  0
  8 52  1  0  0  0  0
  9 10  1  0  0  0  0
  9 11  1  0  0  0  0
  9 12  1  0  0  0  0
  9 28  1  0  0  0  0
 10 13  1  0  0  0  0
 10 29  1  0  0  0  0
 10 30  1  0  0  0  0
 11 14  1  0  0  0  0
 11 31  1  0  0  0  0
 11 32  1  0  0  0  0
 12 33  1  0  0  0  0
 12 34  1  0  0  0  0
 13 15  1  0  0  0  0
 13 35  1  0  0  0  0
 13 36  1  0  0  0  0
 14 15  1  0  0  0  0
 14 37  1  0  0  0  0
 14 38  1  0  0  0  0
 15 39  1  0  0  0  0
 15 40  1  0  0  0  0
 16 17  1  0  0  0  0
 16 18  1  0  0  0  0
 16 41  1  0  0  0  0
 17 21  1  0  0  0  0
 17 42  1  0  0  0  0
 18 43  1  0  0  0  0
 18 44  1  0  0  0  0
 19 20  1  0  0  0  0
 20 45  1  0  0  0  0
 20 46  1  0  0  0  0
 21 22  2  0  0  0  0
 21 23  1  0  0  0  0
 22 24  1  0  0  0  0
 22 48  1  0  0  0  0
 23 25  2  0  0  0  0
 23 49  1  0  0  0  0
 24 26  2  0  0  0  0
 24 50  1  0  0  0  0
 25 26  1  0  0  0  0
 25 51  1  0  0  0  0
 27 53  1  0  0  0  0
 27 54  1  0  0  0  0
 27 55  1  0  0  0  0
M  END
> <PUBCHEM_COMPOUND_CID>
56774637

> <PUBCHEM_CONFORMER_RMSD>
1

> <PUBCHEM_CONFORMER_DIVERSEORDER>
1
44
60
63
43
67
21
8
19
77
75
18
15
37
34
42
65
46
31
70
55
53
13
74
27
28
11
29
30
40
47
56
35
48
50
66
12
73
62
59
76
52
26
9
3
32
68
7
78
24
16
72
64
14
51
23
45
41
2
58
22
57
25
49
69
20
39
10
54
5
6
71
38
4
17
33
36
61

> <PUBCHEM_MMFF94_PARTIAL_CHARGES>
27
1 1.33
12 0.3
16 0.3
17 0.42
18 0.28
19 0.57
2 -0.56
20 0.34
21 -0.14
22 -0.15
23 -0.15
24 -0.15
25 -0.15
26 0.2
27 0.11
3 -0.68
4 -0.57
47 0.4
48 0.15
49 0.15
5 -0.65
50 0.15
51 0.15
52 0.42
6 -0.65
7 -0.66
8 -0.76

> <PUBCHEM_EFFECTIVE_ROTOR_COUNT>
8.2

> <PUBCHEM_PHARMACOPHORE_FEATURES>
10
1 2 acceptor
1 3 acceptor
1 3 donor
1 4 acceptor
1 5 acceptor
1 6 acceptor
1 8 donor
6 2 7 16 18 19 20 rings
6 21 22 23 24 25 26 rings
6 9 10 11 13 14 15 rings

> <PUBCHEM_HEAVY_ATOM_COUNT>
27

> <PUBCHEM_ATOM_DEF_STEREO_COUNT>
2

> <PUBCHEM_ATOM_UDEF_STEREO_COUNT>
0

> <PUBCHEM_BOND_DEF_STEREO_COUNT>
0

> <PUBCHEM_BOND_UDEF_STEREO_COUNT>
0

> <PUBCHEM_ISOTOPIC_ATOM_COUNT>
0

> <PUBCHEM_COMPONENT_COUNT>
1

> <PUBCHEM_CACTVS_TAUTO_COUNT>
2

> <PUBCHEM_CONFORMER_ID>
03624FED00000001

> <PUBCHEM_MMFF94_ENERGY>
65.4309

> <PUBCHEM_FEATURE_SELFOVERLAP>
50.766

> <PUBCHEM_SHAPE_FINGERPRINT>
10 15 18059849585060759082
10066227 112 9583518715890933642
106641 1 16200430312442092447
12166972 35 18187085078964290372
12596602 18 18409443653772140160
12633257 1 17203060685471808255
12760667 363 18411706500078413707
12892183 10 18059576815771787422
13533116 47 18261674874203556376
13540713 4 17273151084875927580
13544653 18 18340498841371201013
13583140 156 17845645954561935796
13782708 43 18040715887239327494
14211702 104 18334581196391704506
15052358 14 11963388535824843358
15183329 4 12540689323712624638
15188451 53 18334010601316705762
17349148 13 18187658993794728972
17492 89 18128548071559062822
17857418 61 17894630335946098058
1813 80 17916046692758161381
190975 80 17988359389961465147
19377110 9 18131075952086279512
20028762 73 18409452500862437942
2026 5 17821723953497852123
21304303 282 18049435942989371677
21521239 73 15792007917626362691
21637258 2 18261109712109758727
21756936 100 12679454292180689957
21792934 111 18131068243189909961
2215653 11 14201394967876546768
22224240 67 15769777966198798103
23559900 14 17896882256651825045
2838139 119 9439128598363329359
329604 57 18410018762166020325
392239 28 17917705833717514018
4015057 19 16154006719377182604
439807 62 17749677410874707683
5104073 3 17916312636626642930
5718773 13 17676199153081462058
59682541 35 17988358273718231602
59755656 520 13912610416543229813
6328613 192 9511462234128138018
9689198 14 13038908871675677378

> <PUBCHEM_SHAPE_MULTIPOLES>
520.19
17.47
2.5
1.74
9.92
0.81
0.13
-13.65
4.76
-2.53
1.1
0.23
-0.06
-0.6

> <PUBCHEM_SHAPE_SELFOVERLAP>
1071.034

> <PUBCHEM_SHAPE_VOLUME>
298.8

> <PUBCHEM_COORDINATE_TYPE>
2
5
10

$$$$
