11866364
  -OEChem-12032416393D

 63 64  0     1  0  0  0  0  0999 V2000
    1.1252   -2.2346   -2.1780 O   0  0  0  0  0  0  0  0  0  0  0  0
   -2.0131   -3.1807    0.9466 O   0  0  0  0  0  0  0  0  0  0  0  0
    0.5808   -4.1186    1.6532 O   0  0  0  0  0  0  0  0  0  0  0  0
    3.2410   -0.8359   -2.2965 O   0  0  0  0  0  0  0  0  0  0  0  0
   -2.9227   -0.0081   -2.0602 O   0  0  0  0  0  0  0  0  0  0  0  0
    4.7286   -0.2317    1.9819 O   0  0  0  0  0  0  0  0  0  0  0  0
   -2.0988   -0.4051    0.0738 N   0  0  0  0  0  0  0  0  0  0  0  0
    3.0202    0.0075   -0.1382 N   0  0  0  0  0  0  0  0  0  0  0  0
    5.4901    1.9013    1.6856 N   0  0  0  0  0  0  0  0  0  0  0  0
   -4.1105    2.2444   -1.1679 N   0  0  0  0  0  0  0  0  0  0  0  0
    1.3812   -1.5307   -0.9683 C   0  0  1  0  0  0  0  0  0  0  0  0
   -1.0637   -1.3435   -0.3011 C   0  0  1  0  0  0  0  0  0  0  0  0
    0.2231   -0.5851   -0.6437 C   0  0  0  0  0  0  0  0  0  0  0  0
   -0.8395   -2.3741    0.8133 C   0  0  2  0  0  0  0  0  0  0  0  0
    1.6067   -2.5379    0.1575 C   0  0  0  0  0  0  0  0  0  0  0  0
    0.3321   -3.3092    0.5035 C   0  0  1  0  0  0  0  0  0  0  0  0
    2.6396   -0.7556   -1.2286 C   0  0  0  0  0  0  0  0  0  0  0  0
    4.2052    0.8254   -0.1241 C   0  0  1  0  0  0  0  0  0  0  0  0
   -2.9494    0.1891   -0.8468 C   0  0  0  0  0  0  0  0  0  0  0  0
   -3.9263    1.1627   -0.1969 C   0  0  2  0  0  0  0  0  0  0  0  0
    3.9027    2.2272   -0.6352 C   0  0  0  0  0  0  0  0  0  0  0  0
   -5.2785    0.5063    0.1248 C   0  0  0  0  0  0  0  0  0  0  0  0
    5.1226    3.1138   -0.4445 C   0  0  0  0  0  0  0  0  0  0  0  0
    4.7888    0.7826    1.2839 C   0  0  0  0  0  0  0  0  0  0  0  0
   -6.2890    1.4351    0.8319 C   0  0  0  0  0  0  0  0  0  0  0  0
    5.4482    3.1978    1.0348 C   0  0  0  0  0  0  0  0  0  0  0  0
   -5.7031    1.9163    2.1625 C   0  0  0  0  0  0  0  0  0  0  0  0
   -7.6366    0.7554    1.0786 C   0  0  0  0  0  0  0  0  0  0  0  0
   -3.0049    3.1858   -1.1022 C   0  0  0  0  0  0  0  0  0  0  0  0
   -1.4154   -1.8656   -1.2009 H   0  0  0  0  0  0  0  0  0  0  0  0
    0.4636    0.0791    0.1958 H   0  0  0  0  0  0  0  0  0  0  0  0
    0.0307    0.0750   -1.5007 H   0  0  0  0  0  0  0  0  0  0  0  0
   -0.6854   -1.8811    1.7809 H   0  0  0  0  0  0  0  0  0  0  0  0
    1.9804   -2.0576    1.0706 H   0  0  0  0  0  0  0  0  0  0  0  0
    2.3840   -3.2599   -0.1281 H   0  0  0  0  0  0  0  0  0  0  0  0
    0.0649   -3.9909   -0.3132 H   0  0  0  0  0  0  0  0  0  0  0  0
   -2.1633   -0.1367    1.0515 H   0  0  0  0  0  0  0  0  0  0  0  0
    0.8790   -1.5876   -2.8610 H   0  0  0  0  0  0  0  0  0  0  0  0
    2.4534    0.0076    0.7036 H   0  0  0  0  0  0  0  0  0  0  0  0
    4.9540    0.3630   -0.7806 H   0  0  0  0  0  0  0  0  0  0  0  0
   -2.1799   -3.6140    0.0922 H   0  0  0  0  0  0  0  0  0  0  0  0
    1.3183   -4.7147    1.4375 H   0  0  0  0  0  0  0  0  0  0  0  0
   -3.4787    1.5437    0.7275 H   0  0  0  0  0  0  0  0  0  0  0  0
    3.6282    2.1925   -1.6962 H   0  0  0  0  0  0  0  0  0  0  0  0
    3.0443    2.6556   -0.1013 H   0  0  0  0  0  0  0  0  0  0  0  0
   -5.1029   -0.3814    0.7477 H   0  0  0  0  0  0  0  0  0  0  0  0
   -5.7299    0.1263   -0.8023 H   0  0  0  0  0  0  0  0  0  0  0  0
    4.9350    4.1159   -0.8450 H   0  0  0  0  0  0  0  0  0  0  0  0
    5.9746    2.6959   -0.9944 H   0  0  0  0  0  0  0  0  0  0  0  0
   -6.4777    2.3123    0.2011 H   0  0  0  0  0  0  0  0  0  0  0  0
    6.4172    3.6816    1.1928 H   0  0  0  0  0  0  0  0  0  0  0  0
    4.6893    3.7882    1.5601 H   0  0  0  0  0  0  0  0  0  0  0  0
    5.9322    1.8619    2.5989 H   0  0  0  0  0  0  0  0  0  0  0  0
   -4.2203    1.8755   -2.1112 H   0  0  0  0  0  0  0  0  0  0  0  0
   -5.3681    1.0765    2.7807 H   0  0  0  0  0  0  0  0  0  0  0  0
   -6.4538    2.4729    2.7350 H   0  0  0  0  0  0  0  0  0  0  0  0
   -4.8595    2.5963    2.0132 H   0  0  0  0  0  0  0  0  0  0  0  0
   -7.5256   -0.1196    1.7281 H   0  0  0  0  0  0  0  0  0  0  0  0
   -8.3425    1.4449    1.5534 H   0  0  0  0  0  0  0  0  0  0  0  0
   -8.0780    0.4217    0.1338 H   0  0  0  0  0  0  0  0  0  0  0  0
   -2.9309    3.6471   -0.1117 H   0  0  0  0  0  0  0  0  0  0  0  0
   -3.1780    3.9937   -1.8203 H   0  0  0  0  0  0  0  0  0  0  0  0
   -2.0458    2.7220   -1.3539 H   0  0  0  0  0  0  0  0  0  0  0  0
  1 11  1  0  0  0  0
  1 38  1  0  0  0  0
  2 14  1  0  0  0  0
  2 41  1  0  0  0  0
  3 16  1  0  0  0  0
  3 42  1  0  0  0  0
  4 17  2  0  0  0  0
  5 19  2  0  0  0  0
  6 24  2  0  0  0  0
  7 12  1  0  0  0  0
  7 19  1  0  0  0  0
  7 37  1  0  0  0  0
  8 17  1  0  0  0  0
  8 18  1  0  0  0  0
  8 39  1  0  0  0  0
  9 24  1  0  0  0  0
  9 26  1  0  0  0  0
  9 53  1  0  0  0  0
 10 20  1  0  0  0  0
 10 29  1  0  0  0  0
 10 54  1  0  0  0  0
 11 13  1  0  0  0  0
 11 15  1  0  0  0  0
 11 17  1  0  0  0  0
 12 13  1  0  0  0  0
 12 14  1  0  0  0  0
 12 30  1  0  0  0  0
 13 31  1  0  0  0  0
 13 32  1  0  0  0  0
 14 16  1  0  0  0  0
 14 33  1  0  0  0  0
 15 16  1  0  0  0  0
 15 34  1  0  0  0  0
 15 35  1  0  0  0  0
 16 36  1  0  0  0  0
 18 21  1  0  0  0  0
 18 24  1  0  0  0  0
 18 40  1  0  0  0  0
 19 20  1  0  0  0  0
 20 22  1  0  0  0  0
 20 43  1  0  0  0  0
 21 23  1  0  0  0  0
 21 44  1  0  0  0  0
 21 45  1  0  0  0  0
 22 25  1  0  0  0  0
 22 46  1  0  0  0  0
 22 47  1  0  0  0  0
 23 26  1  0  0  0  0
 23 48  1  0  0  0  0
 23 49  1  0  0  0  0
 25 27  1  0  0  0  0
 25 28  1  0  0  0  0
 25 50  1  0  0  0  0
 26 51  1  0  0  0  0
 26 52  1  0  0  0  0
 27 55  1  0  0  0  0
 27 56  1  0  0  0  0
 27 57  1  0  0  0  0
 28 58  1  0  0  0  0
 28 59  1  0  0  0  0
 28 60  1  0  0  0  0
 29 61  1  0  0  0  0
 29 62  1  0  0  0  0
 29 63  1  0  0  0  0
M  END
> <PUBCHEM_COMPOUND_CID>
11866364

> <PUBCHEM_CONFORMER_RMSD>
1

> <PUBCHEM_CONFORMER_DIVERSEORDER>
1
116
66
80
195
18
157
238
149
177
25
126
202
184
141
209
144
166
83
127
146
69
214
84
147
165
108
71
179
240
48
198
167
160
212
190
111
121
7
188
91
58
49
230
19
37
20
220
96
27
77
229
118
12
200
176
203
64
15
5
72
215
231
131
62
234
67
210
194
155
120
129
88
186
208
235
70
113
6
103
52
16
205
191
32
207
87
98
78
74
148
222
237
226
85
150
86
2
224
10
225
36
34
133
132
164
59
81
4
180
239
124
216
140
76
236
158
97
134
43
101
135
136
57
33
219
45
152
169
11
28
13
218
79
105
41
143
104
112
173
55
161
90
183
130
117
172
221
204
21
82
65
163
51
154
170
102
156
106
142
42
185
171
109
159
192
92
217
162
31
9
99
182
199
8
233
151
100
40
197
115
68
187
114
54
50
47
201
232
125
22
38
29
227
35
46
95
211
206
175
44
168
181
123
178
107
213
56
174
14
189
128
110
23
153
196
94
30
61
145
93
26
39
53
137
3
60
223
139
122
73
63
228
193
17
89
138
75
119
24

> <PUBCHEM_MMFF94_PARTIAL_CHARGES>
28
1 -0.68
10 -0.9
11 0.34
12 0.3
14 0.28
16 0.28
17 0.57
18 0.36
19 0.57
2 -0.68
20 0.33
24 0.57
26 0.3
29 0.27
3 -0.68
37 0.37
38 0.4
39 0.37
4 -0.57
41 0.4
42 0.4
5 -0.57
53 0.37
54 0.36
6 -0.57
7 -0.73
8 -0.73
9 -0.73

> <PUBCHEM_EFFECTIVE_ROTOR_COUNT>
11.2

> <PUBCHEM_PHARMACOPHORE_FEATURES>
17
1 1 acceptor
1 1 donor
1 10 cation
1 10 donor
1 2 acceptor
1 2 donor
1 3 acceptor
1 3 donor
1 4 acceptor
1 5 acceptor
1 6 acceptor
1 7 donor
1 8 donor
1 9 donor
3 25 27 28 hydrophobe
6 11 12 13 14 15 16 rings
6 9 18 21 23 24 26 rings

> <PUBCHEM_HEAVY_ATOM_COUNT>
29

> <PUBCHEM_ATOM_DEF_STEREO_COUNT>
6

> <PUBCHEM_ATOM_UDEF_STEREO_COUNT>
0

> <PUBCHEM_BOND_DEF_STEREO_COUNT>
0

> <PUBCHEM_BOND_UDEF_STEREO_COUNT>
0

> <PUBCHEM_ISOTOPIC_ATOM_COUNT>
0

> <PUBCHEM_COMPONENT_COUNT>
1

> <PUBCHEM_CACTVS_TAUTO_COUNT>
8

> <PUBCHEM_CONFORMER_ID>
00B510FC00000001

> <PUBCHEM_MMFF94_ENERGY>
56.5708

> <PUBCHEM_FEATURE_SELFOVERLAP>
86.302

> <PUBCHEM_SHAPE_FINGERPRINT>
10074138 170 17604999285313283147
10692045 39 18263914472004916506
10721379 63 16486705640902598566
11135609 201 18342169003375410865
12107183 9 18188470425456052346
12422481 6 17168143429730394475
12633257 1 18187354467913306692
12788726 201 17391370863163458614
13103583 49 13407343011487488804
13726171 33 18050017880845703912
13955234 65 18191027802938956851
13965767 371 17677319520785142638
14294032 229 17772757310196025487
14565420 104 18408606933591480435
146900 427 18265910055691692947
14849402 71 18265619792964351482
15163728 17 18131630110326269326
15776043 110 17750496422445764104
17913733 40 18334858269342876467
1813 80 10087637091817491390
18222031 100 8430310242822184015
18393751 57 18260268581614578793
19246450 95 17683764815404084160
19438510 23 18130786784691162834
21033648 29 18200314446087999668
21401589 2 18410569625954941545
22149856 69 17970654921684003641
23559900 14 18411142425033770710
2838139 119 17774994739365285192
3246875 12 18338803424532406107
3680242 22 18408037390662955432
376196 1 18272088305701371054
392239 28 18334009502121647861
4340502 62 18335143064213456907
484985 159 10053009627269432002
5109719 28 18339093661274504153
5207 123 9511456702547507115
5372103 7 15050865634394212234
57091435 61 18342745078653878073
9981440 41 18260820518786790523

> <PUBCHEM_SHAPE_MULTIPOLES>
541.67
15.63
4.47
1.89
12.7
1.62
-0.04
-17.86
7.02
-2.68
1.06
-0.36
0.06
0.91

> <PUBCHEM_SHAPE_SELFOVERLAP>
1098.552

> <PUBCHEM_SHAPE_VOLUME>
312.3

> <PUBCHEM_COORDINATE_TYPE>
2
5
10

$$$$
