7155600
  -OEChem-12032416113D

 59 63  0     1  0  0  0  0  0999 V2000
    0.4365    2.3731    1.9010 O   0  0  0  0  0  0  0  0  0  0  0  0
   -3.5180   -1.0393    1.7796 O   0  0  0  0  0  0  0  0  0  0  0  0
    2.8368    0.2007   -1.7074 O   0  0  0  0  0  0  0  0  0  0  0  0
    0.5465   -5.7705   -0.0133 O   0  0  0  0  0  0  0  0  0  0  0  0
   -3.9070    0.5743    0.1675 N   0  0  0  0  0  0  0  0  0  0  0  0
   -1.3182    2.4294    0.3591 N   0  0  0  0  0  0  0  0  0  0  0  0
   -3.0322   -1.5335   -0.4329 N   0  0  0  0  0  0  0  0  0  0  0  0
    2.2919    1.6923   -0.0079 N   0  0  0  0  0  0  0  0  0  0  0  0
    4.7804    1.5429    0.8646 N   0  0  0  0  0  0  0  0  0  0  0  0
   -3.7392    2.9135    1.0330 C   0  0  1  0  0  0  0  0  0  0  0  0
   -3.1994    2.4437   -1.3180 C   0  0  2  0  0  0  0  0  0  0  0  0
   -3.8845    3.4417   -0.3886 C   0  0  0  0  0  0  0  0  0  0  0  0
   -4.4026    1.5319    1.1606 C   0  0  0  0  0  0  0  0  0  0  0  0
   -2.2518    2.8760    1.4015 C   0  0  0  0  0  0  0  0  0  0  0  0
   -3.8992    1.0715   -1.2204 C   0  0  0  0  0  0  0  0  0  0  0  0
   -1.7295    2.2926   -0.9705 C   0  0  0  0  0  0  0  0  0  0  0  0
   -0.8342    1.9961   -1.9276 C   0  0  0  0  0  0  0  0  0  0  0  0
    0.0247    2.2477    0.7470 C   0  0  0  0  0  0  0  0  0  0  0  0
   -3.4776   -0.7019    0.5935 C   0  0  0  0  0  0  0  0  0  0  0  0
    0.9857    1.8925   -0.3449 C   0  0  0  0  0  0  0  0  0  0  0  0
    0.5497    1.7913   -1.6050 C   0  0  0  0  0  0  0  0  0  0  0  0
   -2.1211   -2.6130   -0.3258 C   0  0  0  0  0  0  0  0  0  0  0  0
    3.1442    0.8537   -0.7132 C   0  0  0  0  0  0  0  0  0  0  0  0
   -1.8552   -3.4068   -1.4381 C   0  0  0  0  0  0  0  0  0  0  0  0
   -1.4969   -2.8736    0.8909 C   0  0  0  0  0  0  0  0  0  0  0  0
    4.5400    0.7810   -0.2083 C   0  0  0  0  0  0  0  0  0  0  0  0
   -0.9580   -4.4696   -1.3327 C   0  0  0  0  0  0  0  0  0  0  0  0
   -0.5996   -3.9365    0.9962 C   0  0  0  0  0  0  0  0  0  0  0  0
   -0.3301   -4.7345   -0.1157 C   0  0  0  0  0  0  0  0  0  0  0  0
    5.4389   -0.0258   -0.8531 C   0  0  0  0  0  0  0  0  0  0  0  0
    6.7309   -0.0561   -0.3402 C   0  0  0  0  0  0  0  0  0  0  0  0
    6.0467    1.4877    1.3347 C   0  0  0  0  0  0  0  0  0  0  0  0
    7.0488    0.7122    0.7743 C   0  0  0  0  0  0  0  0  0  0  0  0
    1.1526   -5.9849    1.2605 C   0  0  0  0  0  0  0  0  0  0  0  0
   -4.2489    3.5905    1.7297 H   0  0  0  0  0  0  0  0  0  0  0  0
   -3.3003    2.8107   -2.3477 H   0  0  0  0  0  0  0  0  0  0  0  0
   -4.9439    3.5471   -0.6524 H   0  0  0  0  0  0  0  0  0  0  0  0
   -3.4296    4.4360   -0.4802 H   0  0  0  0  0  0  0  0  0  0  0  0
   -5.4828    1.6237    0.9927 H   0  0  0  0  0  0  0  0  0  0  0  0
   -4.2713    1.1469    2.1771 H   0  0  0  0  0  0  0  0  0  0  0  0
   -1.9309    3.8922    1.6687 H   0  0  0  0  0  0  0  0  0  0  0  0
   -2.0931    2.2646    2.2988 H   0  0  0  0  0  0  0  0  0  0  0  0
   -3.4187    0.3785   -1.9126 H   0  0  0  0  0  0  0  0  0  0  0  0
   -4.9477    1.1604   -1.5298 H   0  0  0  0  0  0  0  0  0  0  0  0
   -1.1303    1.8763   -2.9646 H   0  0  0  0  0  0  0  0  0  0  0  0
    1.1894    1.5979   -2.4574 H   0  0  0  0  0  0  0  0  0  0  0  0
   -3.4140   -1.3967   -1.3623 H   0  0  0  0  0  0  0  0  0  0  0  0
    2.5932    2.0295    0.9031 H   0  0  0  0  0  0  0  0  0  0  0  0
   -2.3375   -3.2105   -2.3920 H   0  0  0  0  0  0  0  0  0  0  0  0
   -1.6366   -2.2691    1.7784 H   0  0  0  0  0  0  0  0  0  0  0  0
   -0.7516   -5.0875   -2.2024 H   0  0  0  0  0  0  0  0  0  0  0  0
   -0.1406   -4.0816    1.9683 H   0  0  0  0  0  0  0  0  0  0  0  0
    5.1895   -0.6240   -1.7216 H   0  0  0  0  0  0  0  0  0  0  0  0
    7.4889   -0.6772   -0.8080 H   0  0  0  0  0  0  0  0  0  0  0  0
    6.2433    2.1050    2.2051 H   0  0  0  0  0  0  0  0  0  0  0  0
    8.0494    0.7042    1.1910 H   0  0  0  0  0  0  0  0  0  0  0  0
    1.8175   -6.8490    1.1607 H   0  0  0  0  0  0  0  0  0  0  0  0
    1.7760   -5.1347    1.5576 H   0  0  0  0  0  0  0  0  0  0  0  0
    0.4084   -6.2406    2.0225 H   0  0  0  0  0  0  0  0  0  0  0  0
  1 18  2  0  0  0  0
  2 19  2  0  0  0  0
  3 23  2  0  0  0  0
  4 29  1  0  0  0  0
  4 34  1  0  0  0  0
  5 13  1  0  0  0  0
  5 15  1  0  0  0  0
  5 19  1  0  0  0  0
  6 14  1  0  0  0  0
  6 16  1  0  0  0  0
  6 18  1  0  0  0  0
  7 19  1  0  0  0  0
  7 22  1  0  0  0  0
  7 47  1  0  0  0  0
  8 20  1  0  0  0  0
  8 23  1  0  0  0  0
  8 48  1  0  0  0  0
  9 26  1  0  0  0  0
  9 32  2  0  0  0  0
 10 12  1  0  0  0  0
 10 13  1  0  0  0  0
 10 14  1  0  0  0  0
 10 35  1  0  0  0  0
 11 12  1  0  0  0  0
 11 15  1  0  0  0  0
 11 16  1  0  0  0  0
 11 36  1  0  0  0  0
 12 37  1  0  0  0  0
 12 38  1  0  0  0  0
 13 39  1  0  0  0  0
 13 40  1  0  0  0  0
 14 41  1  0  0  0  0
 14 42  1  0  0  0  0
 15 43  1  0  0  0  0
 15 44  1  0  0  0  0
 16 17  2  0  0  0  0
 17 21  1  0  0  0  0
 17 45  1  0  0  0  0
 18 20  1  0  0  0  0
 20 21  2  0  0  0  0
 21 46  1  0  0  0  0
 22 24  2  0  0  0  0
 22 25  1  0  0  0  0
 23 26  1  0  0  0  0
 24 27  1  0  0  0  0
 24 49  1  0  0  0  0
 25 28  2  0  0  0  0
 25 50  1  0  0  0  0
 26 30  2  0  0  0  0
 27 29  2  0  0  0  0
 27 51  1  0  0  0  0
 28 29  1  0  0  0  0
 28 52  1  0  0  0  0
 30 31  1  0  0  0  0
 30 53  1  0  0  0  0
 31 33  2  0  0  0  0
 31 54  1  0  0  0  0
 32 33  1  0  0  0  0
 32 55  1  0  0  0  0
 33 56  1  0  0  0  0
 34 57  1  0  0  0  0
 34 58  1  0  0  0  0
 34 59  1  0  0  0  0
M  END
> <PUBCHEM_COMPOUND_CID>
7155600

> <PUBCHEM_CONFORMER_RMSD>
1

> <PUBCHEM_CONFORMER_DIVERSEORDER>
1
7
13
23
27
31
32
20
28
9
26
24
14
12
17
33
3
25
19
22
16
30
10
29
5
21
4
11
18
15
6
8
2

> <PUBCHEM_MMFF94_PARTIAL_CHARGES>
44
1 -0.57
11 0.14
13 0.3
14 0.3
15 0.3
16 -0.03
17 -0.15
18 0.62
19 0.69
2 -0.57
20 0.12
21 -0.15
22 0.12
23 0.54
24 -0.15
25 -0.15
26 0.4
27 -0.15
28 -0.15
29 0.08
3 -0.57
30 -0.15
31 -0.15
32 0.16
33 -0.15
34 0.28
4 -0.36
45 0.15
46 0.15
47 0.37
48 0.37
49 0.15
5 -0.66
50 0.15
51 0.15
52 0.15
53 0.15
54 0.15
55 0.15
56 0.15
6 -0.47
7 -0.55
8 -0.54
9 -0.62

> <PUBCHEM_EFFECTIVE_ROTOR_COUNT>
8

> <PUBCHEM_PHARMACOPHORE_FEATURES>
12
1 1 acceptor
1 2 acceptor
1 3 acceptor
1 4 acceptor
1 7 donor
1 8 donor
1 9 acceptor
6 22 24 25 27 28 29 rings
6 5 10 11 12 13 15 rings
6 6 10 11 12 14 16 rings
6 6 16 17 18 20 21 rings
6 9 26 30 31 32 33 rings

> <PUBCHEM_HEAVY_ATOM_COUNT>
34

> <PUBCHEM_ATOM_DEF_STEREO_COUNT>
2

> <PUBCHEM_ATOM_UDEF_STEREO_COUNT>
0

> <PUBCHEM_BOND_DEF_STEREO_COUNT>
0

> <PUBCHEM_BOND_UDEF_STEREO_COUNT>
0

> <PUBCHEM_ISOTOPIC_ATOM_COUNT>
0

> <PUBCHEM_COMPONENT_COUNT>
1

> <PUBCHEM_CACTVS_TAUTO_COUNT>
4

> <PUBCHEM_CONFORMER_ID>
006D2F9000000001

> <PUBCHEM_MMFF94_ENERGY>
112.1137

> <PUBCHEM_FEATURE_SELFOVERLAP>
62.468

> <PUBCHEM_SHAPE_FINGERPRINT>
10483366 6 18195507390142511303
10838868 158 17543907262630854200
11014199 57 17688310505325988658
11513181 2 18272087145717732326
11524674 6 18412260610424735125
12608794 3 18197521690394826913
12712778 12 18338795740593131848
14020679 6 17846790585043144873
14028597 1 17702399355788638273
14114207 22 18189886540102576959
14659021 117 18122893498379750026
14725015 67 18268709588200194147
14844126 61 18338515373248602451
14856354 85 17022912263163977728
15320294 125 18040430014754383838
15927050 60 18269551646750545847
15961568 22 17114938890643537383
16112460 7 18196937669780503378
16120349 306 18338800005084297779
16719943 64 18410014338329022074
16993438 75 18130216173027970494
17627616 140 18265890263823613903
19311894 1 18046906258691538466
19611394 137 18129375072993798200
19958102 18 18408881811635294988
20609170 109 16392609711002223986
20764821 26 18267010657856683206
20771845 165 17463969056308907597
20775438 99 16541827827059216407
20775530 9 17474965692624553863
21344244 246 18119799228579600597
21796203 349 16756384863222619770
229767 44 18336270119176325866
23516275 137 17974310732873347154
3383291 50 18339643455511105699
3882209 13 17406250605493317302
4073 2 18343860031707265908
4403749 210 18334849533374680052
5080951 261 17969758909395588280
5085150 59 18336537261947019741
5265222 85 18335997418628306581

> <PUBCHEM_SHAPE_MULTIPOLES>
651.32
11.86
7.64
1.69
24.66
16.44
0.07
-9.32
-2.09
-3.86
-0.94
-0.47
-0.32
-0.04

> <PUBCHEM_SHAPE_SELFOVERLAP>
1429.37

> <PUBCHEM_SHAPE_VOLUME>
342.4

> <PUBCHEM_COORDINATE_TYPE>
2
5
10

$$$$
