11943156
  -OEChem-12032416153D

 52 55  0     1  0  0  0  0  0999 V2000
    1.9658   -0.9327   -1.4661 O   0  0  0  0  0  0  0  0  0  0  0  0
    0.4449    2.5404   -0.6606 N   0  0  2  0  0  0  0  0  0  0  0  0
    3.7991   -0.9609   -0.0606 N   0  0  0  0  0  0  0  0  0  0  0  0
   -2.3985    0.0588   -0.9961 N   0  0  0  0  0  0  0  0  0  0  0  0
   -2.1873   -1.2373   -0.7477 N   0  0  0  0  0  0  0  0  0  0  0  0
   -3.3564   -1.7543   -0.3861 N   0  0  0  0  0  0  0  0  0  0  0  0
   -5.8988   -0.7932    1.3716 N   0  0  0  0  0  0  0  0  0  0  0  0
    1.4402    0.9358    1.1303 C   0  0  2  0  0  0  0  0  0  0  0  0
    2.3357    0.9984   -0.1219 C   0  0  2  0  0  0  0  0  0  0  0  0
   -0.5841    1.5544   -0.2349 C   0  0  2  0  0  0  0  0  0  0  0  0
    0.0226    0.4963    0.7126 C   0  0  0  0  0  0  0  0  0  0  0  0
    1.3333    2.3728    1.6719 C   0  0  0  0  0  0  0  0  0  0  0  0
    1.6353    1.8401   -1.2034 C   0  0  0  0  0  0  0  0  0  0  0  0
    0.8663    3.3060    0.5392 C   0  0  0  0  0  0  0  0  0  0  0  0
   -1.3001    0.9093   -1.4234 C   0  0  0  0  0  0  0  0  0  0  0  0
    2.6735   -0.3840   -0.6200 C   0  0  0  0  0  0  0  0  0  0  0  0
    4.2546   -2.2930   -0.4301 C   0  0  0  0  0  0  0  0  0  0  0  0
    4.6791   -0.3654    0.9400 C   0  0  0  0  0  0  0  0  0  0  0  0
    5.6559   -2.3913    0.1527 C   0  0  0  0  0  0  0  0  0  0  0  0
    5.5679   -1.5143    1.3954 C   0  0  0  0  0  0  0  0  0  0  0  0
   -3.6888    0.4196   -0.8070 C   0  0  0  0  0  0  0  0  0  0  0  0
   -4.2866   -0.7525   -0.4173 C   0  0  0  0  0  0  0  0  0  0  0  0
   -5.6902   -1.0035   -0.0663 C   0  0  0  0  0  0  0  0  0  0  0  0
   -7.2834   -1.0496    1.7281 C   0  0  0  0  0  0  0  0  0  0  0  0
    1.8331    0.2578    1.8941 H   0  0  0  0  0  0  0  0  0  0  0  0
    3.2637    1.5259    0.1291 H   0  0  0  0  0  0  0  0  0  0  0  0
   -1.3537    2.1049    0.3266 H   0  0  0  0  0  0  0  0  0  0  0  0
   -0.6091    0.4011    1.6048 H   0  0  0  0  0  0  0  0  0  0  0  0
    0.0801   -0.4962    0.2572 H   0  0  0  0  0  0  0  0  0  0  0  0
    0.6221    2.4071    2.5059 H   0  0  0  0  0  0  0  0  0  0  0  0
    2.3032    2.7093    2.0564 H   0  0  0  0  0  0  0  0  0  0  0  0
    1.3625    1.2728   -2.0988 H   0  0  0  0  0  0  0  0  0  0  0  0
    2.3403    2.5966   -1.5749 H   0  0  0  0  0  0  0  0  0  0  0  0
    1.6688    4.0046    0.2703 H   0  0  0  0  0  0  0  0  0  0  0  0
    0.0384    3.9340    0.8913 H   0  0  0  0  0  0  0  0  0  0  0  0
   -0.6345    0.2874   -2.0322 H   0  0  0  0  0  0  0  0  0  0  0  0
   -1.7274    1.6756   -2.0817 H   0  0  0  0  0  0  0  0  0  0  0  0
    3.5745   -3.0170    0.0321 H   0  0  0  0  0  0  0  0  0  0  0  0
    4.2292   -2.4274   -1.5155 H   0  0  0  0  0  0  0  0  0  0  0  0
    5.2686    0.4152    0.4467 H   0  0  0  0  0  0  0  0  0  0  0  0
    4.1186    0.0748    1.7674 H   0  0  0  0  0  0  0  0  0  0  0  0
    6.3855   -1.9680   -0.5482 H   0  0  0  0  0  0  0  0  0  0  0  0
    5.9493   -3.4208    0.3746 H   0  0  0  0  0  0  0  0  0  0  0  0
    5.0789   -2.0689    2.2054 H   0  0  0  0  0  0  0  0  0  0  0  0
    6.5448   -1.1762    1.7515 H   0  0  0  0  0  0  0  0  0  0  0  0
   -4.0581    1.4245   -0.9554 H   0  0  0  0  0  0  0  0  0  0  0  0
   -5.9495   -2.0348   -0.3350 H   0  0  0  0  0  0  0  0  0  0  0  0
   -6.3422   -0.3389   -0.6465 H   0  0  0  0  0  0  0  0  0  0  0  0
   -5.6695    0.1721    1.6093 H   0  0  0  0  0  0  0  0  0  0  0  0
   -7.4189   -0.8914    2.8026 H   0  0  0  0  0  0  0  0  0  0  0  0
   -7.9676   -0.3759    1.2017 H   0  0  0  0  0  0  0  0  0  0  0  0
   -7.5648   -2.0854    1.5120 H   0  0  0  0  0  0  0  0  0  0  0  0
  1 16  2  0  0  0  0
  2 10  1  0  0  0  0
  2 13  1  0  0  0  0
  2 14  1  0  0  0  0
  3 16  1  0  0  0  0
  3 17  1  0  0  0  0
  3 18  1  0  0  0  0
  4  5  1  0  0  0  0
  4 15  1  0  0  0  0
  4 21  1  0  0  0  0
  5  6  2  0  0  0  0
  6 22  1  0  0  0  0
  7 23  1  0  0  0  0
  7 24  1  0  0  0  0
  7 49  1  0  0  0  0
  8  9  1  0  0  0  0
  8 11  1  0  0  0  0
  8 12  1  0  0  0  0
  8 25  1  0  0  0  0
  9 13  1  0  0  0  0
  9 16  1  0  0  0  0
  9 26  1  0  0  0  0
 10 11  1  0  0  0  0
 10 15  1  0  0  0  0
 10 27  1  0  0  0  0
 11 28  1  0  0  0  0
 11 29  1  0  0  0  0
 12 14  1  0  0  0  0
 12 30  1  0  0  0  0
 12 31  1  0  0  0  0
 13 32  1  0  0  0  0
 13 33  1  0  0  0  0
 14 34  1  0  0  0  0
 14 35  1  0  0  0  0
 15 36  1  0  0  0  0
 15 37  1  0  0  0  0
 17 19  1  0  0  0  0
 17 38  1  0  0  0  0
 17 39  1  0  0  0  0
 18 20  1  0  0  0  0
 18 40  1  0  0  0  0
 18 41  1  0  0  0  0
 19 20  1  0  0  0  0
 19 42  1  0  0  0  0
 19 43  1  0  0  0  0
 20 44  1  0  0  0  0
 20 45  1  0  0  0  0
 21 22  2  0  0  0  0
 21 46  1  0  0  0  0
 22 23  1  0  0  0  0
 23 47  1  0  0  0  0
 23 48  1  0  0  0  0
 24 50  1  0  0  0  0
 24 51  1  0  0  0  0
 24 52  1  0  0  0  0
M  END
> <PUBCHEM_COMPOUND_CID>
11943156

> <PUBCHEM_CONFORMER_RMSD>
0.8

> <PUBCHEM_CONFORMER_DIVERSEORDER>
1
42
9
32
13
41
23
39
8
37
38
17
35
6
18
12
29
31
33
34
3
16
4
22
26
21
15
27
5
30
14
36
2
19
24
10
25
28
11
40
7
20

> <PUBCHEM_MMFF94_PARTIAL_CHARGES>
21
1 -0.57
10 0.27
13 0.27
14 0.27
15 0.26
16 0.57
17 0.3
18 0.3
2 -0.81
21 -0.3
22 0.05
23 0.45
24 0.27
3 -0.66
4 0.31
46 0.15
49 0.36
5 -0.42
6 -0.23
7 -0.9
9 0.06

> <PUBCHEM_EFFECTIVE_ROTOR_COUNT>
8.2

> <PUBCHEM_PHARMACOPHORE_FEATURES>
7
1 1 acceptor
1 2 cation
1 7 cation
1 7 donor
5 3 17 18 19 20 rings
5 4 5 6 21 22 rings
8 2 8 9 10 11 12 13 14 rings

> <PUBCHEM_HEAVY_ATOM_COUNT>
24

> <PUBCHEM_ATOM_DEF_STEREO_COUNT>
3

> <PUBCHEM_ATOM_UDEF_STEREO_COUNT>
0

> <PUBCHEM_BOND_DEF_STEREO_COUNT>
0

> <PUBCHEM_BOND_UDEF_STEREO_COUNT>
0

> <PUBCHEM_ISOTOPIC_ATOM_COUNT>
0

> <PUBCHEM_COMPONENT_COUNT>
1

> <PUBCHEM_CACTVS_TAUTO_COUNT>
1

> <PUBCHEM_CONFORMER_ID>
00B63CF400000001

> <PUBCHEM_MMFF94_ENERGY>
48.2604

> <PUBCHEM_FEATURE_SELFOVERLAP>
35.522

> <PUBCHEM_SHAPE_FINGERPRINT>
10693767 8 13551733112199571776
10721379 63 18116453590151959068
11135609 12 18408599266684941073
11265709 11 18341331115601507900
11405975 8 18200877408879077251
11545043 162 17967809445235350077
11578080 2 14780991561976420094
11646440 116 18412265012771774322
11796584 16 18041828502996862062
11961588 58 7997678788486438734
12035758 1 18340473552282158490
12107183 9 18273221885410327723
12596602 18 15123500432512188503
12633257 1 18060140981111581359
13103583 49 17346589794361839055
13533116 47 18339645663418999859
13544653 18 18058715936832610644
13673619 4 18040437689929013535
13685833 64 18334013895583177555
13782708 43 17967534601572762491
13955234 65 18191871338552343300
14123256 34 18261679194270957386
14251764 30 17748830726437862779
14251764 38 10446557239778366523
14347424 109 18341899623543641817
14528608 73 10953457444810982915
15142383 8 18342458106514738729
15238133 3 16702034109844998937
15475509 84 17775290443321436689
15527383 91 18130784585662840049
15961568 22 11312060958713029267
17980427 23 13973668551653417225
17980427 26 17341511296425538408
1813 80 18341622494424877684
193927 3 18337108978023754806
19784866 135 18339637854572791937
1979834 28 17560810908897915934
20642791 268 16343404198921549040
20721686 146 13326855530508511754
20775438 99 15576703852609152731
20832881 197 18409167701680201689
21033648 29 14692577610877098201
21344244 181 16515694350683493291
21403212 168 10447652349438534860
21421861 104 18060423555246693168
21521239 73 13767922399782619656
23559900 14 17822288041832753869
3004659 81 18114462280294263950
3421961 26 18341886441766653648
3737641 26 18127127477077564038
46194498 28 17458344182094853516
463206 1 18335696169791197282
5104073 3 18413389830457621729
56633871 153 18273214166806211399
58260988 587 17679598992810047612
8509985 295 17060350642980436873
8863177 126 17968667141451513755

> <PUBCHEM_SHAPE_MULTIPOLES>
458.15
14.02
2.92
1.5
15.32
1.46
-0.32
-14.29
-6.18
-2.65
-0.31
0.6
0.17
0.67

> <PUBCHEM_SHAPE_SELFOVERLAP>
966.027

> <PUBCHEM_SHAPE_VOLUME>
256.8

> <PUBCHEM_COORDINATE_TYPE>
2
5
10

$$$$
