11912880
  -OEChem-12032416123D

 52 56  0     1  0  0  0  0  0999 V2000
    3.3845   -2.0125    1.4687 S   0  0  0  0  0  0  0  0  0  0  0  0
   -0.1931    0.8736    1.8121 O   0  0  0  0  0  0  0  0  0  0  0  0
   -0.7069    3.4614    0.1460 O   0  0  0  0  0  0  0  0  0  0  0  0
   -4.8898    1.0333    1.3481 O   0  0  0  0  0  0  0  0  0  0  0  0
   -6.1993   -2.7906   -1.4766 O   0  0  0  0  0  0  0  0  0  0  0  0
   -2.9004    0.5356    0.3192 N   0  0  0  0  0  0  0  0  0  0  0  0
    1.9213    2.1763   -0.8640 N   0  0  0  0  0  0  0  0  0  0  0  0
   -4.7738   -0.8790    0.0405 N   0  0  0  0  0  0  0  0  0  0  0  0
    3.2491    0.3254   -0.3001 N   0  0  0  0  0  0  0  0  0  0  0  0
    3.3992    1.3377   -2.4819 N   0  0  0  0  0  0  0  0  0  0  0  0
   -1.0465    2.0791   -0.0527 C   0  0  1  0  0  0  0  0  0  0  0  0
    0.1156    1.2508    0.4595 C   0  0  1  0  0  0  0  0  0  0  0  0
   -2.2002    1.6873    0.8421 C   0  0  2  0  0  0  0  0  0  0  0  0
    1.2873    2.2036    0.4360 C   0  0  2  0  0  0  0  0  0  0  0  0
   -1.5007    1.3595    2.1493 C   0  0  0  0  0  0  0  0  0  0  0  0
    0.6265    3.5497    0.6697 C   0  0  0  0  0  0  0  0  0  0  0  0
   -4.2342    0.2828    0.6178 C   0  0  0  0  0  0  0  0  0  0  0  0
    2.8853    1.2523   -1.2260 C   0  0  0  0  0  0  0  0  0  0  0  0
   -6.1151   -1.3155    0.4353 C   0  0  0  0  0  0  0  0  0  0  0  0
   -4.0640   -1.8215   -0.8361 C   0  0  0  0  0  0  0  0  0  0  0  0
   -6.9165   -1.7751   -0.7724 C   0  0  0  0  0  0  0  0  0  0  0  0
   -4.9632   -2.2815   -1.9786 C   0  0  0  0  0  0  0  0  0  0  0  0
    4.1907   -0.5599   -0.6871 C   0  0  0  0  0  0  0  0  0  0  0  0
    4.3363    0.4212   -2.8018 C   0  0  0  0  0  0  0  0  0  0  0  0
    4.7752   -0.5604   -1.9372 C   0  0  0  0  0  0  0  0  0  0  0  0
    4.5555   -1.5272    0.3135 C   0  0  0  0  0  0  0  0  0  0  0  0
    5.7630   -2.1674    0.5099 C   0  0  0  0  0  0  0  0  0  0  0  0
    5.7243   -3.0629    1.6175 C   0  0  0  0  0  0  0  0  0  0  0  0
    4.4901   -3.0763    2.2291 C   0  0  0  0  0  0  0  0  0  0  0  0
   -1.2370    1.9377   -1.1215 H   0  0  0  0  0  0  0  0  0  0  0  0
    0.2613    0.3268   -0.1092 H   0  0  0  0  0  0  0  0  0  0  0  0
   -2.9168    2.5027    0.9881 H   0  0  0  0  0  0  0  0  0  0  0  0
    2.0210    2.0210    1.2294 H   0  0  0  0  0  0  0  0  0  0  0  0
   -1.3651    2.2607    2.7574 H   0  0  0  0  0  0  0  0  0  0  0  0
   -2.0194    0.6106    2.7553 H   0  0  0  0  0  0  0  0  0  0  0  0
    0.5393    3.7611    1.7413 H   0  0  0  0  0  0  0  0  0  0  0  0
    1.1463    4.3889    0.1969 H   0  0  0  0  0  0  0  0  0  0  0  0
   -2.3351   -0.1701   -0.1341 H   0  0  0  0  0  0  0  0  0  0  0  0
    1.6202    2.8289   -1.5788 H   0  0  0  0  0  0  0  0  0  0  0  0
   -5.9725   -2.1507    1.1315 H   0  0  0  0  0  0  0  0  0  0  0  0
   -6.6504   -0.5232    0.9668 H   0  0  0  0  0  0  0  0  0  0  0  0
   -3.1558   -1.3949   -1.2624 H   0  0  0  0  0  0  0  0  0  0  0  0
   -3.7836   -2.6743   -0.2073 H   0  0  0  0  0  0  0  0  0  0  0  0
   -7.8723   -2.1999   -0.4503 H   0  0  0  0  0  0  0  0  0  0  0  0
   -7.1311   -0.9422   -1.4526 H   0  0  0  0  0  0  0  0  0  0  0  0
   -5.1680   -1.4607   -2.6765 H   0  0  0  0  0  0  0  0  0  0  0  0
   -4.4729   -3.0820   -2.5415 H   0  0  0  0  0  0  0  0  0  0  0  0
    4.7367    0.4995   -3.8070 H   0  0  0  0  0  0  0  0  0  0  0  0
    5.5260   -1.2765   -2.2465 H   0  0  0  0  0  0  0  0  0  0  0  0
    6.6423   -2.0063   -0.1016 H   0  0  0  0  0  0  0  0  0  0  0  0
    6.5596   -3.6655    1.9496 H   0  0  0  0  0  0  0  0  0  0  0  0
    4.1849   -3.6596    3.0864 H   0  0  0  0  0  0  0  0  0  0  0  0
  1 26  1  0  0  0  0
  1 29  1  0  0  0  0
  2 12  1  0  0  0  0
  2 15  1  0  0  0  0
  3 11  1  0  0  0  0
  3 16  1  0  0  0  0
  4 17  2  0  0  0  0
  5 21  1  0  0  0  0
  5 22  1  0  0  0  0
  6 13  1  0  0  0  0
  6 17  1  0  0  0  0
  6 38  1  0  0  0  0
  7 14  1  0  0  0  0
  7 18  1  0  0  0  0
  7 39  1  0  0  0  0
  8 17  1  0  0  0  0
  8 19  1  0  0  0  0
  8 20  1  0  0  0  0
  9 18  1  0  0  0  0
  9 23  2  0  0  0  0
 10 18  2  0  0  0  0
 10 24  1  0  0  0  0
 11 12  1  0  0  0  0
 11 13  1  0  0  0  0
 11 30  1  0  0  0  0
 12 14  1  0  0  0  0
 12 31  1  0  0  0  0
 13 15  1  0  0  0  0
 13 32  1  0  0  0  0
 14 16  1  0  0  0  0
 14 33  1  0  0  0  0
 15 34  1  0  0  0  0
 15 35  1  0  0  0  0
 16 36  1  0  0  0  0
 16 37  1  0  0  0  0
 19 21  1  0  0  0  0
 19 40  1  0  0  0  0
 19 41  1  0  0  0  0
 20 22  1  0  0  0  0
 20 42  1  0  0  0  0
 20 43  1  0  0  0  0
 21 44  1  0  0  0  0
 21 45  1  0  0  0  0
 22 46  1  0  0  0  0
 22 47  1  0  0  0  0
 23 25  1  0  0  0  0
 23 26  1  0  0  0  0
 24 25  2  0  0  0  0
 24 48  1  0  0  0  0
 25 49  1  0  0  0  0
 26 27  2  0  0  0  0
 27 28  1  0  0  0  0
 27 50  1  0  0  0  0
 28 29  2  0  0  0  0
 28 51  1  0  0  0  0
 29 52  1  0  0  0  0
M  END
> <PUBCHEM_COMPOUND_CID>
11912880

> <PUBCHEM_CONFORMER_RMSD>
1

> <PUBCHEM_CONFORMER_DIVERSEORDER>
1
39
29
25
62
24
12
67
43
70
49
46
31
22
14
74
19
55
34
73
57
44
32
75
28
66
65
52
54
11
42
18
8
60
58
37
15
77
61
68
5
7
59
48
56
76
47
27
64
6
38
63
26
10
71
78
53
51
20
21
4
33
50
30
16
3
69
41
36
2
13
45
9
23
35
40
17
72
79

> <PUBCHEM_MMFF94_PARTIAL_CHARGES>
36
1 -0.08
10 -0.62
11 0.28
12 0.28
13 0.3
14 0.37
15 0.28
16 0.28
17 0.69
18 0.72
19 0.3
2 -0.56
20 0.3
21 0.28
22 0.28
23 0.36
24 0.16
25 -0.15
26 -0.01
27 -0.15
28 -0.15
29 -0.11
3 -0.56
38 0.37
39 0.4
4 -0.57
48 0.15
49 0.15
5 -0.56
50 0.15
51 0.15
52 0.15
6 -0.73
7 -0.87
8 -0.66
9 -0.62

> <PUBCHEM_EFFECTIVE_ROTOR_COUNT>
8.4

> <PUBCHEM_PHARMACOPHORE_FEATURES>
13
1 2 acceptor
1 3 acceptor
1 4 acceptor
1 5 acceptor
1 6 donor
1 7 donor
1 9 acceptor
4 7 9 10 18 cation
5 1 26 27 28 29 rings
5 2 11 12 13 15 rings
5 3 11 12 14 16 rings
6 5 8 19 20 21 22 rings
6 9 10 18 23 24 25 rings

> <PUBCHEM_HEAVY_ATOM_COUNT>
29

> <PUBCHEM_ATOM_DEF_STEREO_COUNT>
4

> <PUBCHEM_ATOM_UDEF_STEREO_COUNT>
0

> <PUBCHEM_BOND_DEF_STEREO_COUNT>
0

> <PUBCHEM_BOND_UDEF_STEREO_COUNT>
0

> <PUBCHEM_ISOTOPIC_ATOM_COUNT>
0

> <PUBCHEM_COMPONENT_COUNT>
1

> <PUBCHEM_CACTVS_TAUTO_COUNT>
6

> <PUBCHEM_CONFORMER_ID>
00B5C6B000000001

> <PUBCHEM_MMFF94_ENERGY>
71.4797

> <PUBCHEM_FEATURE_SELFOVERLAP>
66.68

> <PUBCHEM_SHAPE_FINGERPRINT>
10074138 170 16915678973108962345
10622 236 17969777471964719218
11069576 57 18041007198456258086
11135609 149 18115568431356170684
11135926 11 17170147861519696052
11443803 9 17987244520728495404
11497681 19 18118962496094716178
11607047 403 18266444568993890528
11796584 16 18059864939184318097
12166972 35 18113611266510026206
12342043 65 16271105700289269668
14347332 77 18341894117537719861
15001296 14 18127969922222568447
15163728 17 7853572452138116225
15419009 47 17244404314676004421
15728490 51 18412540999697859874
17134984 74 18042693973330171282
19315092 285 18339918230712998408
19841028 212 17914327134193545807
20156587 76 17271970343243442535
20567600 234 10592051254474449143
20626108 58 18131354137044467689
20775438 99 18046333399572974987
208703 8 18411418384666000062
21049683 118 16266836575733063896
21136928 129 14115795909550535066
21315763 87 15051736417311909143
21458453 9 15983949671283070034
21585480 29 15194986306578795903
21585483 132 18056745749662385359
25222932 49 18343577473987112764
2838139 119 13046215147774556637
3004659 81 18130800004922480669
3729539 64 18040994055719338403
3882209 13 15433944062445386594
397830 11 12679460928633110717
4015057 19 17386300821605112752
4394409 98 18269255903930064207
439807 62 18259987072431422067
46194498 28 15286514048310835204
463206 1 18335145288642467970
50009960 94 17700384122225393015
5085150 59 17703789181535643647
5223283 242 15647610043245254239
59025328 239 17386007205372885604
59682541 52 17821443586584889863
6058803 2 18045523927909903164
6636735 143 15482665772077240287
6677587 24 16518210183727939838
96874 4 18410002217646885586

> <PUBCHEM_SHAPE_MULTIPOLES>
552.27
16.63
4.15
2.33
14.33
0.42
0.86
-19.39
3.53
-0.95
-1.01
-2.12
-0.47
-5.82

> <PUBCHEM_SHAPE_SELFOVERLAP>
1182.454

> <PUBCHEM_SHAPE_VOLUME>
307.4

> <PUBCHEM_COORDINATE_TYPE>
2
5
10

$$$$
