11884002
  -OEChem-12032416373D

 60 64  0     1  0  0  0  0  0999 V2000
    0.6032   -1.3903   -1.1082 O   0  0  0  0  0  0  0  0  0  0  0  0
   -0.2569   -3.1475    1.2531 O   0  0  0  0  0  0  0  0  0  0  0  0
    2.8118   -1.4288    0.5732 O   0  0  0  0  0  0  0  0  0  0  0  0
   -4.3346   -2.0111    0.2403 O   0  0  0  0  0  0  0  0  0  0  0  0
    3.0291    0.5267    1.7389 O   0  0  0  0  0  0  0  0  0  0  0  0
  -10.7640    0.7397    0.1965 O   0  0  0  0  0  0  0  0  0  0  0  0
   -2.4874   -1.0523   -0.7669 N   0  0  0  0  0  0  0  0  0  0  0  0
   -4.4667    0.1141   -0.7482 N   0  0  0  0  0  0  0  0  0  0  0  0
    4.7182   -0.2511    0.3169 N   0  0  0  0  0  0  0  0  0  0  0  0
   -0.7776   -1.8989    0.7513 C   0  0  1  0  0  0  0  0  0  0  0  0
    0.4111   -1.0839    0.2829 C   0  0  1  0  0  0  0  0  0  0  0  0
   -1.5729   -2.1382   -0.5109 C   0  0  2  0  0  0  0  0  0  0  0  0
    1.5339   -1.6247    1.1352 C   0  0  1  0  0  0  0  0  0  0  0  0
   -0.4851   -2.2058   -1.5690 C   0  0  0  0  0  0  0  0  0  0  0  0
    1.1770   -3.0903    1.2407 C   0  0  0  0  0  0  0  0  0  0  0  0
   -3.8286   -1.0687   -0.3641 C   0  0  0  0  0  0  0  0  0  0  0  0
    3.4923   -0.2903    0.9525 C   0  0  0  0  0  0  0  0  0  0  0  0
   -5.8144    0.4834   -0.5302 C   0  0  0  0  0  0  0  0  0  0  0  0
    5.7226    0.7377    0.4235 C   0  0  0  0  0  0  0  0  0  0  0  0
    6.9303    0.6451   -0.2875 C   0  0  0  0  0  0  0  0  0  0  0  0
   -6.2831    1.7146   -0.9887 C   0  0  0  0  0  0  0  0  0  0  0  0
   -6.6747   -0.3829    0.1446 C   0  0  0  0  0  0  0  0  0  0  0  0
    5.4744    1.8206    1.2673 C   0  0  0  0  0  0  0  0  0  0  0  0
    7.8996    1.6658   -0.1405 C   0  0  0  0  0  0  0  0  0  0  0  0
    7.1973   -0.4377   -1.1411 C   0  0  0  0  0  0  0  0  0  0  0  0
    6.4274    2.8245    1.4116 C   0  0  0  0  0  0  0  0  0  0  0  0
    7.6328    2.7488    0.7129 C   0  0  0  0  0  0  0  0  0  0  0  0
   -7.6119    2.0794   -0.7726 C   0  0  0  0  0  0  0  0  0  0  0  0
   -8.0035   -0.0180    0.3607 C   0  0  0  0  0  0  0  0  0  0  0  0
   -8.4722    1.2131   -0.0979 C   0  0  0  0  0  0  0  0  0  0  0  0
    9.1073    1.5735   -0.8513 C   0  0  0  0  0  0  0  0  0  0  0  0
    8.4026   -0.5132   -1.8395 C   0  0  0  0  0  0  0  0  0  0  0  0
    9.3559    0.4904   -1.6949 C   0  0  0  0  0  0  0  0  0  0  0  0
   -9.8577    1.5936    0.1267 C   0  0  0  0  0  0  0  0  0  0  0  0
  -10.2357    3.0626    0.2826 C   0  0  0  0  0  0  0  0  0  0  0  0
   -1.3375   -1.4226    1.5623 H   0  0  0  0  0  0  0  0  0  0  0  0
    0.2746   -0.0020    0.3693 H   0  0  0  0  0  0  0  0  0  0  0  0
   -2.1389   -3.0755   -0.4835 H   0  0  0  0  0  0  0  0  0  0  0  0
    1.4622   -1.1990    2.1457 H   0  0  0  0  0  0  0  0  0  0  0  0
   -0.8059   -1.8589   -2.5561 H   0  0  0  0  0  0  0  0  0  0  0  0
   -0.1018   -3.2271   -1.6708 H   0  0  0  0  0  0  0  0  0  0  0  0
    1.5471   -3.6711    0.3884 H   0  0  0  0  0  0  0  0  0  0  0  0
    1.5708   -3.5501    2.1521 H   0  0  0  0  0  0  0  0  0  0  0  0
   -2.1264   -0.2089   -1.2026 H   0  0  0  0  0  0  0  0  0  0  0  0
   -3.9013    0.7967   -1.2466 H   0  0  0  0  0  0  0  0  0  0  0  0
    4.8961   -1.0386   -0.2954 H   0  0  0  0  0  0  0  0  0  0  0  0
    4.5760    1.9670    1.8471 H   0  0  0  0  0  0  0  0  0  0  0  0
   -5.6236    2.3977   -1.5181 H   0  0  0  0  0  0  0  0  0  0  0  0
   -6.3859   -1.3504    0.5303 H   0  0  0  0  0  0  0  0  0  0  0  0
    6.4988   -1.2529   -1.2995 H   0  0  0  0  0  0  0  0  0  0  0  0
    6.2352    3.6683    2.0681 H   0  0  0  0  0  0  0  0  0  0  0  0
    8.3635    3.5448    0.8410 H   0  0  0  0  0  0  0  0  0  0  0  0
   -7.9533    3.0385   -1.1517 H   0  0  0  0  0  0  0  0  0  0  0  0
   -8.6591   -0.7035    0.8919 H   0  0  0  0  0  0  0  0  0  0  0  0
    9.8667    2.3465   -0.7536 H   0  0  0  0  0  0  0  0  0  0  0  0
    8.5975   -1.3558   -2.4967 H   0  0  0  0  0  0  0  0  0  0  0  0
   10.2941    0.4310   -2.2389 H   0  0  0  0  0  0  0  0  0  0  0  0
  -11.1171    3.1378    0.9266 H   0  0  0  0  0  0  0  0  0  0  0  0
   -9.4289    3.6224    0.7636 H   0  0  0  0  0  0  0  0  0  0  0  0
  -10.4620    3.4882   -0.6981 H   0  0  0  0  0  0  0  0  0  0  0  0
  1 11  1  0  0  0  0
  1 14  1  0  0  0  0
  2 10  1  0  0  0  0
  2 15  1  0  0  0  0
  3 13  1  0  0  0  0
  3 17  1  0  0  0  0
  4 16  2  0  0  0  0
  5 17  2  0  0  0  0
  6 34  2  0  0  0  0
  7 12  1  0  0  0  0
  7 16  1  0  0  0  0
  7 44  1  0  0  0  0
  8 16  1  0  0  0  0
  8 18  1  0  0  0  0
  8 45  1  0  0  0  0
  9 17  1  0  0  0  0
  9 19  1  0  0  0  0
  9 46  1  0  0  0  0
 10 11  1  0  0  0  0
 10 12  1  0  0  0  0
 10 36  1  0  0  0  0
 11 13  1  0  0  0  0
 11 37  1  0  0  0  0
 12 14  1  0  0  0  0
 12 38  1  0  0  0  0
 13 15  1  0  0  0  0
 13 39  1  0  0  0  0
 14 40  1  0  0  0  0
 14 41  1  0  0  0  0
 15 42  1  0  0  0  0
 15 43  1  0  0  0  0
 18 21  2  0  0  0  0
 18 22  1  0  0  0  0
 19 20  1  0  0  0  0
 19 23  2  0  0  0  0
 20 24  1  0  0  0  0
 20 25  2  0  0  0  0
 21 28  1  0  0  0  0
 21 48  1  0  0  0  0
 22 29  2  0  0  0  0
 22 49  1  0  0  0  0
 23 26  1  0  0  0  0
 23 47  1  0  0  0  0
 24 27  1  0  0  0  0
 24 31  2  0  0  0  0
 25 32  1  0  0  0  0
 25 50  1  0  0  0  0
 26 27  2  0  0  0  0
 26 51  1  0  0  0  0
 27 52  1  0  0  0  0
 28 30  2  0  0  0  0
 28 53  1  0  0  0  0
 29 30  1  0  0  0  0
 29 54  1  0  0  0  0
 30 34  1  0  0  0  0
 31 33  1  0  0  0  0
 31 55  1  0  0  0  0
 32 33  2  0  0  0  0
 32 56  1  0  0  0  0
 33 57  1  0  0  0  0
 34 35  1  0  0  0  0
 35 58  1  0  0  0  0
 35 59  1  0  0  0  0
 35 60  1  0  0  0  0
M  END
> <PUBCHEM_COMPOUND_CID>
11884002

> <PUBCHEM_CONFORMER_RMSD>
1

> <PUBCHEM_CONFORMER_DIVERSEORDER>
1
87
167
43
22
122
138
182
85
51
108
109
98
69
148
137
115
142
181
82
154
3
23
119
56
64
157
96
141
111
120
177
178
160
170
100
124
146
161
153
92
55
164
150
57
129
112
179
71
17
59
132
155
156
35
121
159
169
168
81
62
110
27
118
101
68
49
66
79
15
128
143
104
136
37
103
90
91
80
86
163
84
127
107
151
7
114
40
166
117
54
88
176
73
21
116
113
70
50
158
126
46
25
60
31
74
41
97
83
165
75
33
77
102
61
76
45
162
20
145
135
105
123
99
14
131
28
133
95
134
2
65
12
42
5
147
139
78
44
13
180
9
4
172
53
171
72
130
30
89
183
47
67
39
19
173
175
16
52
48
6
144
140
152
58
10
24
36
8
11
94
32
174
29
38
93
26
63
125
34
149
106
18

> <PUBCHEM_MMFF94_PARTIAL_CHARGES>
47
1 -0.56
10 0.28
11 0.28
12 0.3
13 0.28
14 0.28
15 0.28
16 0.69
17 0.78
18 0.12
19 0.12
2 -0.56
21 -0.15
22 -0.15
23 -0.15
25 -0.15
26 -0.15
27 -0.15
28 -0.15
29 -0.15
3 -0.43
30 0.09
31 -0.15
32 -0.15
33 -0.15
34 0.42
35 0.06
4 -0.57
44 0.37
45 0.37
46 0.37
47 0.15
48 0.15
49 0.15
5 -0.57
50 0.15
51 0.15
52 0.15
53 0.15
54 0.15
55 0.15
56 0.15
57 0.15
6 -0.57
7 -0.73
8 -0.55
9 -0.55

> <PUBCHEM_EFFECTIVE_ROTOR_COUNT>
10.2

> <PUBCHEM_PHARMACOPHORE_FEATURES>
13
1 1 acceptor
1 2 acceptor
1 4 acceptor
1 5 acceptor
1 6 acceptor
1 7 donor
1 8 donor
1 9 donor
5 1 10 11 12 14 rings
5 2 10 11 13 15 rings
6 18 21 22 28 29 30 rings
6 19 20 23 24 26 27 rings
6 20 24 25 31 32 33 rings

> <PUBCHEM_HEAVY_ATOM_COUNT>
35

> <PUBCHEM_ATOM_DEF_STEREO_COUNT>
4

> <PUBCHEM_ATOM_UDEF_STEREO_COUNT>
0

> <PUBCHEM_BOND_DEF_STEREO_COUNT>
0

> <PUBCHEM_BOND_UDEF_STEREO_COUNT>
0

> <PUBCHEM_ISOTOPIC_ATOM_COUNT>
0

> <PUBCHEM_COMPONENT_COUNT>
1

> <PUBCHEM_CACTVS_TAUTO_COUNT>
32

> <PUBCHEM_CONFORMER_ID>
00B555E200000001

> <PUBCHEM_MMFF94_ENERGY>
114.5852

> <PUBCHEM_FEATURE_SELFOVERLAP>
66.769

> <PUBCHEM_SHAPE_FINGERPRINT>
10 15 17894628141666046939
10055352 69 18411135862412783017
10483366 6 17132117939625011754
106641 1 15140963963095673295
11409948 41 15554179060508882340
11411753 3 17344333708440513146
1200032 147 17967809449414682594
12013929 112 15554447371701467065
12098696 120 18411416219659325088
12202916 173 10519987084061727164
12539765 74 18413670201549031750
12838863 1 10159700196224691468
14040221 8 15984830290076399609
14201967 126 18334857220807607741
14359421 15 12535633760669239725
14400156 260 18335130991413849088
14617042 71 18409730639155468025
14664723 55 17988928877108312441
14747281 78 18410015412751672550
15065858 18 8430320112836436775
15183329 4 17418099840927237946
15188451 53 12463580582479631130
15320295 40 9367347041994178477
15347590 135 15213011635490284581
15350500 16 11887955445416044548
15392192 104 16081091480636727914
15455200 100 14348085315950829593
15706992 2 18259993669252898591
1577012 14 18336536187852365531
15840311 113 18335702710941265631
16992610 120 18187374237943396918
1754911 235 18201717358331876717
17686467 74 18259982709345756739
19302320 297 17822010938806365572
19303781 99 10447629302449274433
19304671 126 18131346445454288728
2026 5 11167951298423646101
20505436 4 18412255139006431687
20766409 102 18338796716411785581
21360443 89 10087648083582696724
21585482 111 18188766146412710733
21792938 169 11026382592062342203
21895431 317 11023832751725822565
22002106 203 8213848268472537753
23524908 199 17560806503083740278
23528940 14 11023843743422579748
23576562 1 17843950667046705845
23729398 52 18045214934788044786
24203241 11 12974185015974369561
24771293 8 18040151825633331471
25269216 80 17417234551388958943
2835820 33 18114185281338367451
2851757 41 9151173190497796457
3711267 37 18337120028590303865
3986486 107 18201439207812638948
3991529 128 17676214571365026517
4408954 87 11602820212052088656
44880568 143 18192995053274860788
474113 269 12247683760082252180
5718773 13 9799693722623320307
5719381 82 10952047862693983021
5758199 1 17967811656489944755
59682541 35 12612752428072027308
6201320 221 15122961578200543684
9689198 14 18410855481645410686
9962374 69 7997673291223796555

> <PUBCHEM_SHAPE_MULTIPOLES>
670.12
39.24
3.31
1.43
36.39
0.12
-0.11
-38.51
-8.5
0.8
0.96
-2.73
0.21
1.55

> <PUBCHEM_SHAPE_SELFOVERLAP>
1469.788

> <PUBCHEM_SHAPE_VOLUME>
361.6

> <PUBCHEM_COORDINATE_TYPE>
2
5
10

$$$$
