56774898
  -OEChem-12032416273D

 43 45  0     1  0  0  0  0  0999 V2000
   -3.8352   -1.9244   -0.7136 O   0  0  0  0  0  0  0  0  0  0  0  0
   -3.3502    1.6289    1.4891 O   0  0  0  0  0  0  0  0  0  0  0  0
   -7.1197   -0.6933    0.1451 O   0  0  0  0  0  0  0  0  0  0  0  0
    3.3524   -1.5026    1.0887 O   0  0  0  0  0  0  0  0  0  0  0  0
   -5.1876    0.5048   -0.3528 N   0  0  0  0  0  0  0  0  0  0  0  0
    2.6594    0.4441   -0.0332 N   0  0  0  0  0  0  0  0  0  0  0  0
    5.2307    0.8514   -0.7162 N   0  0  0  0  0  0  0  0  0  0  0  0
    7.2986   -0.8743    0.0658 N   0  0  0  0  0  0  0  0  0  0  0  0
   -3.7384    0.4603   -0.5840 C   0  0  1  0  0  0  0  0  0  0  0  0
   -2.9794    0.4724    0.7462 C   0  0  1  0  0  0  0  0  0  0  0  0
   -3.3796   -0.7698   -1.4091 C   0  0  0  0  0  0  0  0  0  0  0  0
   -1.4862    0.4648    0.5392 C   0  0  0  0  0  0  0  0  0  0  0  0
   -5.9423   -0.6587   -0.2174 C   0  0  0  0  0  0  0  0  0  0  0  0
   -5.2431   -1.9463   -0.6387 C   0  0  0  0  0  0  0  0  0  0  0  0
   -5.7867    1.8055   -0.0855 C   0  0  0  0  0  0  0  0  0  0  0  0
   -0.7134   -0.5653    1.0752 C   0  0  0  0  0  0  0  0  0  0  0  0
   -0.8772    1.4878   -0.1877 C   0  0  0  0  0  0  0  0  0  0  0  0
    0.6683   -0.5724    0.8846 C   0  0  0  0  0  0  0  0  0  0  0  0
    0.5045    1.4807   -0.3785 C   0  0  0  0  0  0  0  0  0  0  0  0
    1.2772    0.4507    0.1577 C   0  0  0  0  0  0  0  0  0  0  0  0
    3.5892   -0.4982    0.4261 C   0  0  0  0  0  0  0  0  0  0  0  0
    5.0002   -0.2447    0.0335 C   0  0  0  0  0  0  0  0  0  0  0  0
    6.0159   -1.0924    0.4175 C   0  0  0  0  0  0  0  0  0  0  0  0
    6.5134    1.0694   -1.0680 C   0  0  0  0  0  0  0  0  0  0  0  0
    7.5291    0.2217   -0.6839 C   0  0  0  0  0  0  0  0  0  0  0  0
   -3.4946    1.3476   -1.1811 H   0  0  0  0  0  0  0  0  0  0  0  0
   -3.2788   -0.3850    1.3608 H   0  0  0  0  0  0  0  0  0  0  0  0
   -2.3046   -0.8704   -1.5816 H   0  0  0  0  0  0  0  0  0  0  0  0
   -3.8537   -0.7333   -2.3986 H   0  0  0  0  0  0  0  0  0  0  0  0
   -5.5200   -2.7266    0.0778 H   0  0  0  0  0  0  0  0  0  0  0  0
   -5.6440   -2.2374   -1.6168 H   0  0  0  0  0  0  0  0  0  0  0  0
   -5.7144    2.0280    0.9816 H   0  0  0  0  0  0  0  0  0  0  0  0
   -6.8487    1.7828   -0.3491 H   0  0  0  0  0  0  0  0  0  0  0  0
   -5.2939    2.5822   -0.6759 H   0  0  0  0  0  0  0  0  0  0  0  0
   -1.1751   -1.3691    1.6426 H   0  0  0  0  0  0  0  0  0  0  0  0
   -1.4570    2.3045   -0.6083 H   0  0  0  0  0  0  0  0  0  0  0  0
   -3.1863    2.4158    0.9422 H   0  0  0  0  0  0  0  0  0  0  0  0
    1.1966   -1.4034    1.3300 H   0  0  0  0  0  0  0  0  0  0  0  0
    0.9661    2.2851   -0.9457 H   0  0  0  0  0  0  0  0  0  0  0  0
    3.0280    1.2217   -0.5771 H   0  0  0  0  0  0  0  0  0  0  0  0
    5.8506   -1.9781    1.0196 H   0  0  0  0  0  0  0  0  0  0  0  0
    6.6993    1.9499   -1.6703 H   0  0  0  0  0  0  0  0  0  0  0  0
    8.5595    0.3976   -0.9670 H   0  0  0  0  0  0  0  0  0  0  0  0
  1 11  1  0  0  0  0
  1 14  1  0  0  0  0
  2 10  1  0  0  0  0
  2 37  1  0  0  0  0
  3 13  2  0  0  0  0
  4 21  2  0  0  0  0
  5  9  1  0  0  0  0
  5 13  1  0  0  0  0
  5 15  1  0  0  0  0
  6 20  1  0  0  0  0
  6 21  1  0  0  0  0
  6 40  1  0  0  0  0
  7 22  2  0  0  0  0
  7 24  1  0  0  0  0
  8 23  2  0  0  0  0
  8 25  1  0  0  0  0
  9 10  1  0  0  0  0
  9 11  1  0  0  0  0
  9 26  1  0  0  0  0
 10 12  1  0  0  0  0
 10 27  1  0  0  0  0
 11 28  1  0  0  0  0
 11 29  1  0  0  0  0
 12 16  2  0  0  0  0
 12 17  1  0  0  0  0
 13 14  1  0  0  0  0
 14 30  1  0  0  0  0
 14 31  1  0  0  0  0
 15 32  1  0  0  0  0
 15 33  1  0  0  0  0
 15 34  1  0  0  0  0
 16 18  1  0  0  0  0
 16 35  1  0  0  0  0
 17 19  2  0  0  0  0
 17 36  1  0  0  0  0
 18 20  2  0  0  0  0
 18 38  1  0  0  0  0
 19 20  1  0  0  0  0
 19 39  1  0  0  0  0
 21 22  1  0  0  0  0
 22 23  1  0  0  0  0
 23 41  1  0  0  0  0
 24 25  2  0  0  0  0
 24 42  1  0  0  0  0
 25 43  1  0  0  0  0
M  END
> <PUBCHEM_COMPOUND_CID>
56774898

> <PUBCHEM_CONFORMER_RMSD>
0.8

> <PUBCHEM_CONFORMER_DIVERSEORDER>
1
28
3
24
29
18
20
13
11
22
32
6
5
19
36
27
33
34
16
14
7
25
23
26
21
10
30
12
4
15
35
17
2
31
8
9

> <PUBCHEM_MMFF94_PARTIAL_CHARGES>
34
1 -0.56
10 0.42
11 0.28
12 -0.14
13 0.57
14 0.34
15 0.3
16 -0.15
17 -0.15
18 -0.15
19 -0.15
2 -0.68
20 0.12
21 0.54
22 0.4
23 0.16
24 0.16
25 0.16
3 -0.57
35 0.15
36 0.15
37 0.4
38 0.15
39 0.15
4 -0.57
40 0.37
41 0.15
42 0.15
43 0.15
5 -0.66
6 -0.55
7 -0.62
8 -0.62
9 0.3

> <PUBCHEM_EFFECTIVE_ROTOR_COUNT>
6

> <PUBCHEM_PHARMACOPHORE_FEATURES>
11
1 1 acceptor
1 2 acceptor
1 2 donor
1 3 acceptor
1 4 acceptor
1 6 donor
1 7 acceptor
1 8 acceptor
6 1 5 9 11 13 14 rings
6 12 16 17 18 19 20 rings
6 7 8 22 23 24 25 rings

> <PUBCHEM_HEAVY_ATOM_COUNT>
25

> <PUBCHEM_ATOM_DEF_STEREO_COUNT>
2

> <PUBCHEM_ATOM_UDEF_STEREO_COUNT>
0

> <PUBCHEM_BOND_DEF_STEREO_COUNT>
0

> <PUBCHEM_BOND_UDEF_STEREO_COUNT>
0

> <PUBCHEM_ISOTOPIC_ATOM_COUNT>
0

> <PUBCHEM_COMPONENT_COUNT>
1

> <PUBCHEM_CACTVS_TAUTO_COUNT>
4

> <PUBCHEM_CONFORMER_ID>
036250F200000001

> <PUBCHEM_MMFF94_ENERGY>
79.0295

> <PUBCHEM_FEATURE_SELFOVERLAP>
55.829

> <PUBCHEM_SHAPE_FINGERPRINT>
10 15 11386372543013066062
10299344 5 18409730659785837510
10595046 47 18334575707507233624
106641 1 11743832586671023181
11315181 36 18131071541323814721
11524674 6 16271924930614156855
12166972 35 18335140929156184180
12236239 1 18408886226218291573
12516196 113 18409445890996822928
13288520 33 18201718466406831185
13533116 47 16588576514687494120
13668630 136 18343023281276881446
14123256 10 18335138704895043236
1420 363 16415480454460210390
14251752 14 18411980256233684319
14528608 73 18335139808860017272
14856354 85 18272373100814135911
15183329 4 18187356636333792279
15348495 7 14620500277185536166
15537594 2 17775560940261329647
15716309 27 12535347891792583028
17844677 252 16271927116979233600
18335252 98 17458069278919512371
18681886 176 18342450482419930049
18927931 339 17203325620271024917
19489759 90 16917067733203093137
20281389 69 8502654801158740830
21033648 29 13190629420799503748
21150785 3 17676487271760181922
21267235 1 18410293653627844115
220451 1 18411417289169128107
22224240 67 12031786963528757341
2297311 6 17418095416709873321
23035841 295 18272651255316844039
23081809 10 18334577915336747248
23198884 109 17749107794703884587
23402539 116 18408602552249986908
23522609 53 18265360363960436084
23559900 14 17916855941135947673
2838139 119 12251898218016335327
29717793 49 18409733937790091086
3004659 81 18410006662926753280
3009799 131 16298384669277955732
335352 9 18342170065171219173
34797466 226 16988566836102125240
397830 11 16414615207455216482
4073 2 17604155921245165834
4325135 7 18408041810495169086
5265222 85 17916864750256159886
54039377 194 18337676429710154731
559249 180 18413386523748898183
59755656 215 17132117922582312374
59755656 520 17312821589213455163
999808 66 17968105256940060739

> <PUBCHEM_SHAPE_MULTIPOLES>
471.09
20.65
1.66
1.07
17.33
0.06
-0.03
2.72
4.5
-1.53
0.09
-0.2
0.03
-1.68

> <PUBCHEM_SHAPE_SELFOVERLAP>
1011.305

> <PUBCHEM_SHAPE_VOLUME>
255.4

> <PUBCHEM_COORDINATE_TYPE>
2
5
10

$$$$
