11882876
  -OEChem-12032416133D

 56 60  0     1  0  0  0  0  0999 V2000
   -6.7995   -4.1241    0.8605 Cl  0  0  0  0  0  0  0  0  0  0  0  0
    8.4597   -0.4555    1.0915 S   0  0  0  0  0  0  0  0  0  0  0  0
    2.0908    2.2222    1.5869 O   0  0  0  0  0  0  0  0  0  0  0  0
   -1.1076    0.9486   -2.3307 O   0  0  0  0  0  0  0  0  0  0  0  0
    5.8428    0.9137    1.0576 O   0  0  0  0  0  0  0  0  0  0  0  0
   -5.9605    1.4604   -0.7581 O   0  0  0  0  0  0  0  0  0  0  0  0
    0.7414    0.6794   -0.9526 N   0  0  0  0  0  0  0  0  0  0  0  0
    4.8936   -0.2889   -0.6542 N   0  0  0  0  0  0  0  0  0  0  0  0
   -0.1729    1.9030    1.5814 N   0  0  0  0  0  0  0  0  0  0  0  0
    1.2548    0.3183    0.3626 C   0  0  1  0  0  0  0  0  0  0  0  0
    3.6282    0.4045   -0.6130 C   0  0  2  0  0  0  0  0  0  0  0  0
    2.6661   -0.2809    0.3566 C   0  0  0  0  0  0  0  0  0  0  0  0
    2.9947    0.4602   -1.9991 C   0  0  0  0  0  0  0  0  0  0  0  0
    1.6747    1.2115   -1.9487 C   0  0  0  0  0  0  0  0  0  0  0  0
    1.1161    1.5733    1.2055 C   0  0  0  0  0  0  0  0  0  0  0  0
   -0.6275    0.7491   -1.2141 C   0  0  0  0  0  0  0  0  0  0  0  0
   -1.5769    0.6503   -0.0735 C   0  0  0  0  0  0  0  0  0  0  0  0
   -1.3778    1.2936    1.1622 C   0  0  0  0  0  0  0  0  0  0  0  0
    5.9419    0.0246    0.2101 C   0  0  0  0  0  0  0  0  0  0  0  0
   -2.8157    0.0470   -0.3502 C   0  0  0  0  0  0  0  0  0  0  0  0
   -2.4503    1.3743    2.0655 C   0  0  0  0  0  0  0  0  0  0  0  0
   -3.8527    0.0938    0.5803 C   0  0  0  0  0  0  0  0  0  0  0  0
   -3.6747    0.7691    1.7821 C   0  0  0  0  0  0  0  0  0  0  0  0
    7.1553   -0.7922    0.0676 C   0  0  0  0  0  0  0  0  0  0  0  0
   -5.1211   -0.5366    0.2845 C   0  0  0  0  0  0  0  0  0  0  0  0
    7.3662   -1.8055   -0.8012 C   0  0  0  0  0  0  0  0  0  0  0  0
   -6.1338    0.1633   -0.3740 C   0  0  0  0  0  0  0  0  0  0  0  0
   -5.3285   -1.8634    0.6659 C   0  0  0  0  0  0  0  0  0  0  0  0
    8.6716   -2.3503   -0.6303 C   0  0  0  0  0  0  0  0  0  0  0  0
    9.3735   -1.7090    0.3665 C   0  0  0  0  0  0  0  0  0  0  0  0
   -7.3498   -0.4614   -0.6502 C   0  0  0  0  0  0  0  0  0  0  0  0
   -6.5447   -2.4882    0.3897 C   0  0  0  0  0  0  0  0  0  0  0  0
   -7.5554   -1.7872   -0.2682 C   0  0  0  0  0  0  0  0  0  0  0  0
   -5.4220    1.6830   -2.0591 C   0  0  0  0  0  0  0  0  0  0  0  0
    0.6031   -0.4468    0.8045 H   0  0  0  0  0  0  0  0  0  0  0  0
    3.8161    1.4297   -0.2718 H   0  0  0  0  0  0  0  0  0  0  0  0
    2.5836   -1.3389    0.0688 H   0  0  0  0  0  0  0  0  0  0  0  0
    3.0845   -0.2797    1.3712 H   0  0  0  0  0  0  0  0  0  0  0  0
    2.8263   -0.5566   -2.3777 H   0  0  0  0  0  0  0  0  0  0  0  0
    3.6724    0.9516   -2.7075 H   0  0  0  0  0  0  0  0  0  0  0  0
    1.8487    2.2626   -1.6875 H   0  0  0  0  0  0  0  0  0  0  0  0
    1.2104    1.2060   -2.9406 H   0  0  0  0  0  0  0  0  0  0  0  0
    4.9755   -1.0617   -1.3054 H   0  0  0  0  0  0  0  0  0  0  0  0
   -0.2544    2.5975    2.3199 H   0  0  0  0  0  0  0  0  0  0  0  0
   -2.9753   -0.4514   -1.3053 H   0  0  0  0  0  0  0  0  0  0  0  0
   -2.3320    1.8867    3.0184 H   0  0  0  0  0  0  0  0  0  0  0  0
   -4.4768    0.8327    2.5136 H   0  0  0  0  0  0  0  0  0  0  0  0
    6.6667   -2.1781   -1.5373 H   0  0  0  0  0  0  0  0  0  0  0  0
   -4.5422   -2.4138    1.1795 H   0  0  0  0  0  0  0  0  0  0  0  0
    9.0757   -3.1708   -1.2091 H   0  0  0  0  0  0  0  0  0  0  0  0
   10.3793   -1.9166    0.7035 H   0  0  0  0  0  0  0  0  0  0  0  0
   -8.1420    0.0784   -1.1620 H   0  0  0  0  0  0  0  0  0  0  0  0
   -8.5082   -2.2610   -0.4899 H   0  0  0  0  0  0  0  0  0  0  0  0
   -4.7571    2.5500   -2.0145 H   0  0  0  0  0  0  0  0  0  0  0  0
   -6.2417    1.9038   -2.7492 H   0  0  0  0  0  0  0  0  0  0  0  0
   -4.8582    0.8229   -2.4350 H   0  0  0  0  0  0  0  0  0  0  0  0
  1 32  1  0  0  0  0
  2 24  1  0  0  0  0
  2 30  1  0  0  0  0
  3 15  2  0  0  0  0
  4 16  2  0  0  0  0
  5 19  2  0  0  0  0
  6 27  1  0  0  0  0
  6 34  1  0  0  0  0
  7 10  1  0  0  0  0
  7 14  1  0  0  0  0
  7 16  1  0  0  0  0
  8 11  1  0  0  0  0
  8 19  1  0  0  0  0
  8 43  1  0  0  0  0
  9 15  1  0  0  0  0
  9 18  1  0  0  0  0
  9 44  1  0  0  0  0
 10 12  1  0  0  0  0
 10 15  1  0  0  0  0
 10 35  1  0  0  0  0
 11 12  1  0  0  0  0
 11 13  1  0  0  0  0
 11 36  1  0  0  0  0
 12 37  1  0  0  0  0
 12 38  1  0  0  0  0
 13 14  1  0  0  0  0
 13 39  1  0  0  0  0
 13 40  1  0  0  0  0
 14 41  1  0  0  0  0
 14 42  1  0  0  0  0
 16 17  1  0  0  0  0
 17 18  2  0  0  0  0
 17 20  1  0  0  0  0
 18 21  1  0  0  0  0
 19 24  1  0  0  0  0
 20 22  2  0  0  0  0
 20 45  1  0  0  0  0
 21 23  2  0  0  0  0
 21 46  1  0  0  0  0
 22 23  1  0  0  0  0
 22 25  1  0  0  0  0
 23 47  1  0  0  0  0
 24 26  2  0  0  0  0
 25 27  2  0  0  0  0
 25 28  1  0  0  0  0
 26 29  1  0  0  0  0
 26 48  1  0  0  0  0
 27 31  1  0  0  0  0
 28 32  2  0  0  0  0
 28 49  1  0  0  0  0
 29 30  2  0  0  0  0
 29 50  1  0  0  0  0
 30 51  1  0  0  0  0
 31 33  2  0  0  0  0
 31 52  1  0  0  0  0
 32 33  1  0  0  0  0
 33 53  1  0  0  0  0
 34 54  1  0  0  0  0
 34 55  1  0  0  0  0
 34 56  1  0  0  0  0
M  END
> <PUBCHEM_COMPOUND_CID>
11882876

> <PUBCHEM_CONFORMER_RMSD>
0.8

> <PUBCHEM_CONFORMER_DIVERSEORDER>
1
23
30
28
27
2
35
31
15
12
3
26
13
25
32
19
10
34
6
29
14
17
36
4
18
8
22
16
7
24
21
33
9
5
20
11

> <PUBCHEM_MMFF94_PARTIAL_CHARGES>
41
1 -0.18
10 0.36
11 0.3
14 0.3
15 0.57
16 0.54
17 0.09
18 0.12
19 0.71
2 -0.08
20 -0.15
21 -0.15
23 -0.15
24 -0.05
26 -0.15
27 0.08
28 -0.15
29 -0.15
3 -0.57
30 -0.11
31 -0.15
32 0.18
33 -0.15
34 0.28
4 -0.57
43 0.37
44 0.37
45 0.15
46 0.15
47 0.15
48 0.15
49 0.15
5 -0.57
50 0.15
51 0.15
52 0.15
53 0.15
6 -0.36
7 -0.66
8 -0.73
9 -0.55

> <PUBCHEM_EFFECTIVE_ROTOR_COUNT>
6

> <PUBCHEM_PHARMACOPHORE_FEATURES>
11
1 3 acceptor
1 4 acceptor
1 5 acceptor
1 6 acceptor
1 8 donor
1 9 donor
5 2 24 26 29 30 rings
6 17 18 20 21 22 23 rings
6 25 27 28 31 32 33 rings
6 7 10 11 12 13 14 rings
7 7 9 10 15 16 17 18 rings

> <PUBCHEM_HEAVY_ATOM_COUNT>
34

> <PUBCHEM_ATOM_DEF_STEREO_COUNT>
2

> <PUBCHEM_ATOM_UDEF_STEREO_COUNT>
0

> <PUBCHEM_BOND_DEF_STEREO_COUNT>
0

> <PUBCHEM_BOND_UDEF_STEREO_COUNT>
0

> <PUBCHEM_ISOTOPIC_ATOM_COUNT>
0

> <PUBCHEM_COMPONENT_COUNT>
1

> <PUBCHEM_CACTVS_TAUTO_COUNT>
6

> <PUBCHEM_CONFORMER_ID>
00B5517C00000001

> <PUBCHEM_MMFF94_ENERGY>
116.9918

> <PUBCHEM_FEATURE_SELFOVERLAP>
55.849

> <PUBCHEM_SHAPE_FINGERPRINT>
10 15 16487253271108275958
10190206 1 13912596143559576607
10369192 42 9799693688500998089
106641 1 16056876944436946326
11135609 187 11891340863847359992
11135609 99 18342458200466124463
11135926 11 18340772542330901523
11181472 205 11170452618509016998
12035758 1 16272216296710489300
12218070 45 14548721941948003957
12645989 146 17676490575054211365
13383668 90 17748825203247460143
13782708 43 18336548303970373091
13811026 1 18343301470545828466
14068700 675 18040154023923585012
14251764 18 16056872525553902220
14415361 349 17821447963257512930
14849402 71 13326845664979513210
15183329 4 14851602180815192312
15347590 135 16128665132430819978
15419008 91 18263624265159570516
15461852 350 18259706683743483212
15706992 2 10952051194913546606
16993089 31 18269562629288637406
16994733 274 9799694783643876686
18603816 31 18410850001684632911
20105231 36 17822582711651280931
2026 5 18408323289488337395
20721686 146 9295026643451147307
21033650 10 17821723906764543945
21095123 293 10087633811196090442
212700 22 18411978049328460566
21756936 100 10231750077039120609
22149856 69 15553906428637659690
22224240 67 15051728686365377844
23559900 14 18270113643110880105
23576562 1 15647915862234196462
3383291 50 17988647410337018735
3711267 37 8862654738168313350
5104073 3 16414375371843380035
5758199 1 13183021817535661100
5937810 71 11098121255056948767
59521660 218 17987786531893428512
59682541 35 17418369199911820890
6201320 82 10882221126052092983
9689198 14 9367344843055332026
9953998 17 14045738223360479063
9962374 69 17060043891419653493

> <PUBCHEM_SHAPE_MULTIPOLES>
667
27.42
2.65
1.82
34.62
2.59
0.18
24.39
0.79
-3.84
-0.41
-0.3
-1.15
1.67

> <PUBCHEM_SHAPE_SELFOVERLAP>
1447.817

> <PUBCHEM_SHAPE_VOLUME>
364.9

> <PUBCHEM_COORDINATE_TYPE>
2
5
10

$$$$
