38028516
  -OEChem-12032416243D

 69 70  0     1  0  0  0  0  0999 V2000
   -2.9321    1.9247    1.6477 O   0  0  0  0  0  0  0  0  0  0  0  0
    2.3551   -1.7621   -1.7035 O   0  0  0  0  0  0  0  0  0  0  0  0
    2.8563    0.2218   -0.5972 N   0  0  0  0  0  0  0  0  0  0  0  0
   -2.0574   -0.1524    2.2142 N   0  0  0  0  0  0  0  0  0  0  0  0
   -3.1857   -2.9794   -0.8294 N   0  0  0  0  0  0  0  0  0  0  0  0
    0.1943    1.4587   -1.2511 C   0  0  1  0  0  0  0  0  0  0  0  0
    1.5777    2.1426   -1.3873 C   0  0  1  0  0  0  0  0  0  0  0  0
   -0.7969    2.3912   -0.5383 C   0  0  0  0  0  0  0  0  0  0  0  0
   -0.3109    2.7937    0.8668 C   0  0  2  0  0  0  0  0  0  0  0  0
   -0.3715    1.0435   -2.6127 C   0  0  0  0  0  0  0  0  0  0  0  0
    1.1404    3.2289    0.8574 C   0  0  0  0  0  0  0  0  0  0  0  0
    1.9657    2.9404   -0.1646 C   0  0  0  0  0  0  0  0  0  0  0  0
    2.6738    1.1166   -1.6967 C   0  0  0  0  0  0  0  0  0  0  0  0
   -0.5378    1.6618    1.8750 C   0  0  0  0  0  0  0  0  0  0  0  0
   -1.3643   -0.1030   -2.4493 C   0  0  0  0  0  0  0  0  0  0  0  0
   -1.0295    2.2350   -3.3011 C   0  0  0  0  0  0  0  0  0  0  0  0
    1.6106    4.0438    2.0301 C   0  0  0  0  0  0  0  0  0  0  0  0
   -1.9756    1.1940    1.8906 C   0  0  0  0  0  0  0  0  0  0  0  0
    2.6822   -1.1578   -0.6840 C   0  0  0  0  0  0  0  0  0  0  0  0
    2.9281   -1.8855    0.6276 C   0  0  0  0  0  0  0  0  0  0  0  0
    4.3760   -2.3954    0.8223 C   0  0  0  0  0  0  0  0  0  0  0  0
    4.5290   -3.1288    2.1654 C   0  0  0  0  0  0  0  0  0  0  0  0
    4.6886   -3.3892   -0.3137 C   0  0  0  0  0  0  0  0  0  0  0  0
    5.3927   -1.2442    0.7539 C   0  0  0  0  0  0  0  0  0  0  0  0
   -3.3096   -0.8675    2.3049 C   0  0  0  0  0  0  0  0  0  0  0  0
   -3.7060   -1.4756    0.9905 C   0  0  0  0  0  0  0  0  0  0  0  0
   -4.9032   -1.1307    0.3731 C   0  0  0  0  0  0  0  0  0  0  0  0
   -2.8897   -2.3964    0.3538 C   0  0  0  0  0  0  0  0  0  0  0  0
   -5.2426   -1.7092   -0.8448 C   0  0  0  0  0  0  0  0  0  0  0  0
   -4.3576   -2.6196   -1.3995 C   0  0  0  0  0  0  0  0  0  0  0  0
    0.3035    0.5575   -0.6352 H   0  0  0  0  0  0  0  0  0  0  0  0
    1.5540    2.8548   -2.2217 H   0  0  0  0  0  0  0  0  0  0  0  0
   -1.7990    1.9570   -0.5146 H   0  0  0  0  0  0  0  0  0  0  0  0
   -0.8925    3.3354   -1.0915 H   0  0  0  0  0  0  0  0  0  0  0  0
   -0.9226    3.6542    1.1726 H   0  0  0  0  0  0  0  0  0  0  0  0
    0.4291    0.6763   -3.2631 H   0  0  0  0  0  0  0  0  0  0  0  0
    2.9857    3.3191   -0.1393 H   0  0  0  0  0  0  0  0  0  0  0  0
    3.6340    1.6239   -1.8502 H   0  0  0  0  0  0  0  0  0  0  0  0
    2.4659    0.5584   -2.6136 H   0  0  0  0  0  0  0  0  0  0  0  0
   -0.3071    2.0004    2.8925 H   0  0  0  0  0  0  0  0  0  0  0  0
    0.1333    0.8208    1.6613 H   0  0  0  0  0  0  0  0  0  0  0  0
   -2.2280    0.1787   -1.8395 H   0  0  0  0  0  0  0  0  0  0  0  0
   -0.8860   -0.9702   -1.9815 H   0  0  0  0  0  0  0  0  0  0  0  0
   -1.7426   -0.4242   -3.4260 H   0  0  0  0  0  0  0  0  0  0  0  0
   -1.9854    2.5201   -2.8492 H   0  0  0  0  0  0  0  0  0  0  0  0
   -1.2601    1.9675   -4.3398 H   0  0  0  0  0  0  0  0  0  0  0  0
   -0.3759    3.1111   -3.3464 H   0  0  0  0  0  0  0  0  0  0  0  0
    0.9833    4.9329    2.1509 H   0  0  0  0  0  0  0  0  0  0  0  0
    2.6443    4.3844    1.9077 H   0  0  0  0  0  0  0  0  0  0  0  0
    1.5651    3.4566    2.9522 H   0  0  0  0  0  0  0  0  0  0  0  0
    3.1830    0.6117    0.2822 H   0  0  0  0  0  0  0  0  0  0  0  0
    2.6571   -1.2184    1.4565 H   0  0  0  0  0  0  0  0  0  0  0  0
    2.2188   -2.7222    0.6737 H   0  0  0  0  0  0  0  0  0  0  0  0
   -1.2065   -0.6767    2.3961 H   0  0  0  0  0  0  0  0  0  0  0  0
    5.5448   -3.5179    2.2966 H   0  0  0  0  0  0  0  0  0  0  0  0
    3.8353   -3.9741    2.2340 H   0  0  0  0  0  0  0  0  0  0  0  0
    4.3176   -2.4554    3.0035 H   0  0  0  0  0  0  0  0  0  0  0  0
    4.7081   -2.9037   -1.2949 H   0  0  0  0  0  0  0  0  0  0  0  0
    3.9502   -4.1983   -0.3490 H   0  0  0  0  0  0  0  0  0  0  0  0
    5.6731   -3.8498   -0.1683 H   0  0  0  0  0  0  0  0  0  0  0  0
    5.1623   -0.4732    1.4974 H   0  0  0  0  0  0  0  0  0  0  0  0
    6.4078   -1.6053    0.9563 H   0  0  0  0  0  0  0  0  0  0  0  0
    5.4140   -0.7702   -0.2328 H   0  0  0  0  0  0  0  0  0  0  0  0
   -4.0826   -0.1816    2.6697 H   0  0  0  0  0  0  0  0  0  0  0  0
   -3.1894   -1.6581    3.0537 H   0  0  0  0  0  0  0  0  0  0  0  0
   -5.5790   -0.4125    0.8289 H   0  0  0  0  0  0  0  0  0  0  0  0
   -1.9436   -2.7083    0.7856 H   0  0  0  0  0  0  0  0  0  0  0  0
   -6.1702   -1.4549   -1.3447 H   0  0  0  0  0  0  0  0  0  0  0  0
   -4.5753   -3.0982   -2.3487 H   0  0  0  0  0  0  0  0  0  0  0  0
  1 18  2  0  0  0  0
  2 19  2  0  0  0  0
  3 13  1  0  0  0  0
  3 19  1  0  0  0  0
  3 51  1  0  0  0  0
  4 18  1  0  0  0  0
  4 25  1  0  0  0  0
  4 54  1  0  0  0  0
  5 28  1  0  0  0  0
  5 30  2  0  0  0  0
  6  7  1  0  0  0  0
  6  8  1  0  0  0  0
  6 10  1  0  0  0  0
  6 31  1  0  0  0  0
  7 12  1  0  0  0  0
  7 13  1  0  0  0  0
  7 32  1  0  0  0  0
  8  9  1  0  0  0  0
  8 33  1  0  0  0  0
  8 34  1  0  0  0  0
  9 11  1  0  0  0  0
  9 14  1  0  0  0  0
  9 35  1  0  0  0  0
 10 15  1  0  0  0  0
 10 16  1  0  0  0  0
 10 36  1  0  0  0  0
 11 12  2  0  0  0  0
 11 17  1  0  0  0  0
 12 37  1  0  0  0  0
 13 38  1  0  0  0  0
 13 39  1  0  0  0  0
 14 18  1  0  0  0  0
 14 40  1  0  0  0  0
 14 41  1  0  0  0  0
 15 42  1  0  0  0  0
 15 43  1  0  0  0  0
 15 44  1  0  0  0  0
 16 45  1  0  0  0  0
 16 46  1  0  0  0  0
 16 47  1  0  0  0  0
 17 48  1  0  0  0  0
 17 49  1  0  0  0  0
 17 50  1  0  0  0  0
 19 20  1  0  0  0  0
 20 21  1  0  0  0  0
 20 52  1  0  0  0  0
 20 53  1  0  0  0  0
 21 22  1  0  0  0  0
 21 23  1  0  0  0  0
 21 24  1  0  0  0  0
 22 55  1  0  0  0  0
 22 56  1  0  0  0  0
 22 57  1  0  0  0  0
 23 58  1  0  0  0  0
 23 59  1  0  0  0  0
 23 60  1  0  0  0  0
 24 61  1  0  0  0  0
 24 62  1  0  0  0  0
 24 63  1  0  0  0  0
 25 26  1  0  0  0  0
 25 64  1  0  0  0  0
 25 65  1  0  0  0  0
 26 27  1  0  0  0  0
 26 28  2  0  0  0  0
 27 29  2  0  0  0  0
 27 66  1  0  0  0  0
 28 67  1  0  0  0  0
 29 30  1  0  0  0  0
 29 68  1  0  0  0  0
 30 69  1  0  0  0  0
M  END
> <PUBCHEM_COMPOUND_CID>
38028516

> <PUBCHEM_CONFORMER_RMSD>
1

> <PUBCHEM_CONFORMER_DIVERSEORDER>
1
26
112
42
11
53
7
85
40
213
87
159
125
207
164
161
88
173
51
36
28
113
132
163
224
206
199
47
119
70
116
126
100
140
180
204
82
221
131
149
196
150
223
203
202
214
151
91
216
95
59
118
205
60
92
209
55
127
166
193
133
227
174
134
56
98
54
162
156
186
195
130
129
157
5
141
94
83
142
215
175
107
219
65
16
62
158
167
168
220
124
101
21
165
171
226
8
121
19
153
12
90
179
52
136
18
143
77
103
178
71
172
191
4
69
68
44
84
78
201
160
79
183
72
37
110
181
105
197
63
108
211
212
138
35
96
93
185
73
188
106
128
154
139
34
176
145
41
190
67
177
182
6
109
80
75
57
194
66
222
86
200
114
81
210
76
169
2
17
144
122
225
64
9
217
27
115
192
147
111
170
117
49
99
152
14
20
208
43
3
198
25
184
123
146
10
33
23
61
29
137
102
89
58
45
50
31
135
189
148
46
74
30
48
13
120
32
187
22
97
104
155
218
24
15
38
39

> <PUBCHEM_MMFF94_PARTIAL_CHARGES>
28
1 -0.57
11 -0.28
12 -0.29
13 0.3
14 0.06
17 0.14
18 0.57
19 0.57
2 -0.57
20 0.06
25 0.44
26 -0.14
27 -0.15
28 0.16
29 -0.15
3 -0.73
30 0.16
37 0.15
4 -0.73
5 -0.62
51 0.37
54 0.37
66 0.15
67 0.15
68 0.15
69 0.15
7 0.14
9 0.14

> <PUBCHEM_EFFECTIVE_ROTOR_COUNT>
11.8

> <PUBCHEM_PHARMACOPHORE_FEATURES>
9
1 1 acceptor
1 2 acceptor
1 3 donor
1 4 donor
1 5 acceptor
3 10 15 16 hydrophobe
4 21 22 23 24 hydrophobe
6 5 26 27 28 29 30 rings
6 6 7 8 9 11 12 rings

> <PUBCHEM_HEAVY_ATOM_COUNT>
30

> <PUBCHEM_ATOM_DEF_STEREO_COUNT>
3

> <PUBCHEM_ATOM_UDEF_STEREO_COUNT>
0

> <PUBCHEM_BOND_DEF_STEREO_COUNT>
0

> <PUBCHEM_BOND_UDEF_STEREO_COUNT>
0

> <PUBCHEM_ISOTOPIC_ATOM_COUNT>
0

> <PUBCHEM_COMPONENT_COUNT>
1

> <PUBCHEM_CACTVS_TAUTO_COUNT>
4

> <PUBCHEM_CONFORMER_ID>
024444E400000001

> <PUBCHEM_MMFF94_ENERGY>
64.2414

> <PUBCHEM_FEATURE_SELFOVERLAP>
45.671

> <PUBCHEM_SHAPE_FINGERPRINT>
11552529 35 18051129199406433914
11582403 64 15220644733147565092
12977781 61 18122308433244725720
13383668 262 17189507190157348807
13947947 73 18409725171857312279
14251757 17 16878228679206015011
14674994 50 17973722480629306780
15119646 57 10446485874591382922
15163728 17 8574424344408685440
15297060 5 13899126194817876733
18681886 176 15767834123708794137
19026451 147 18270396229930693323
19315092 285 17769633619474233615
20775530 9 18188222996162883378
23419403 2 18265309837721890772
25222932 49 17052746626774494143
3027735 51 17460308854781818147
35225 105 17832728780442492415
46194498 28 16157108575081145203
469060 322 17273103874816806062
484985 159 17977095769518986102
5081480 168 17822277008093756267
513532 50 17607499596371872215
7288768 16 11959721668688210279

> <PUBCHEM_SHAPE_MULTIPOLES>
590.7
9.75
5.2
2.96
0.32
0.93
-0.7
-13.82
1.83
3.27
1.17
-1.16
1.48
-1.24

> <PUBCHEM_SHAPE_SELFOVERLAP>
1201.575

> <PUBCHEM_SHAPE_VOLUME>
341.2

> <PUBCHEM_COORDINATE_TYPE>
2
5
10

$$$$
