11884624
  -OEChem-12032416123D

 62 66  0     1  0  0  0  0  0999 V2000
   -1.1633    2.0976   -1.3331 O   0  0  0  0  0  0  0  0  0  0  0  0
   -0.8093    4.0690    0.9739 O   0  0  0  0  0  0  0  0  0  0  0  0
   -3.5731    1.9885    0.0446 O   0  0  0  0  0  0  0  0  0  0  0  0
   -3.7438    0.0904    1.3090 O   0  0  0  0  0  0  0  0  0  0  0  0
   -8.8580   -3.6769   -0.1767 O   0  0  0  0  0  0  0  0  0  0  0  0
    1.8660    2.0586   -0.5940 N   0  0  0  0  0  0  0  0  0  0  0  0
   -5.2982    0.5951   -0.3673 N   0  0  0  0  0  0  0  0  0  0  0  0
   -0.1046    2.8515    0.6470 C   0  0  1  0  0  0  0  0  0  0  0  0
   -1.1332    1.8883    0.0898 C   0  0  1  0  0  0  0  0  0  0  0  0
    0.8387    3.0953   -0.5112 C   0  0  2  0  0  0  0  0  0  0  0  0
   -2.4084    2.3557    0.7489 C   0  0  1  0  0  0  0  0  0  0  0  0
   -0.1008    2.9896   -1.7038 C   0  0  0  0  0  0  0  0  0  0  0  0
   -2.2163    3.8551    0.7883 C   0  0  0  0  0  0  0  0  0  0  0  0
    3.0117    2.3994    0.2356 C   0  0  0  0  0  0  0  0  0  0  0  0
    4.0842    1.3445    0.1716 C   0  0  0  0  0  0  0  0  0  0  0  0
   -4.1786    0.8053    0.4143 C   0  0  0  0  0  0  0  0  0  0  0  0
    4.0737    0.2837    1.0775 C   0  0  0  0  0  0  0  0  0  0  0  0
    5.0880    1.4278   -0.7933 C   0  0  0  0  0  0  0  0  0  0  0  0
    5.0673   -0.6934    1.0186 C   0  0  0  0  0  0  0  0  0  0  0  0
    6.0815    0.4507   -0.8522 C   0  0  0  0  0  0  0  0  0  0  0  0
    6.0712   -0.6100    0.0538 C   0  0  0  0  0  0  0  0  0  0  0  0
   -6.2017   -0.4907   -0.3193 C   0  0  0  0  0  0  0  0  0  0  0  0
    7.1017   -1.6233   -0.0076 C   0  0  0  0  0  0  0  0  0  0  0  0
   -7.2866   -0.5344   -1.1951 C   0  0  0  0  0  0  0  0  0  0  0  0
   -6.0095   -1.5182    0.6045 C   0  0  0  0  0  0  0  0  0  0  0  0
    6.9191   -2.7565   -0.8005 C   0  0  0  0  0  0  0  0  0  0  0  0
    8.2783   -1.4673    0.7254 C   0  0  0  0  0  0  0  0  0  0  0  0
   -8.1789   -1.6051   -1.1473 C   0  0  0  0  0  0  0  0  0  0  0  0
   -6.9020   -2.5891    0.6523 C   0  0  0  0  0  0  0  0  0  0  0  0
   -7.9868   -2.6325   -0.2237 C   0  0  0  0  0  0  0  0  0  0  0  0
    7.9128   -3.7336   -0.8601 C   0  0  0  0  0  0  0  0  0  0  0  0
    9.2720   -2.4445    0.6656 C   0  0  0  0  0  0  0  0  0  0  0  0
    9.0891   -3.5776   -0.1271 C   0  0  0  0  0  0  0  0  0  0  0  0
   -8.6023   -4.6930    0.7918 C   0  0  0  0  0  0  0  0  0  0  0  0
    0.3678    2.4969    1.5680 H   0  0  0  0  0  0  0  0  0  0  0  0
   -0.9051    0.8334    0.2671 H   0  0  0  0  0  0  0  0  0  0  0  0
    1.2878    4.0958   -0.5068 H   0  0  0  0  0  0  0  0  0  0  0  0
   -2.4322    2.0029    1.7893 H   0  0  0  0  0  0  0  0  0  0  0  0
    0.3713    2.6331   -2.6250 H   0  0  0  0  0  0  0  0  0  0  0  0
   -0.5550    3.9625   -1.9249 H   0  0  0  0  0  0  0  0  0  0  0  0
   -2.7699    4.3243    1.6072 H   0  0  0  0  0  0  0  0  0  0  0  0
   -2.5276    4.3394   -0.1441 H   0  0  0  0  0  0  0  0  0  0  0  0
    2.1827    1.9726   -1.5602 H   0  0  0  0  0  0  0  0  0  0  0  0
    3.4442    3.3593   -0.0768 H   0  0  0  0  0  0  0  0  0  0  0  0
    2.7118    2.5290    1.2831 H   0  0  0  0  0  0  0  0  0  0  0  0
    3.2958    0.2067    1.8327 H   0  0  0  0  0  0  0  0  0  0  0  0
    5.1060    2.2483   -1.5057 H   0  0  0  0  0  0  0  0  0  0  0  0
   -5.5000    1.3075   -1.0646 H   0  0  0  0  0  0  0  0  0  0  0  0
    5.0442   -1.5139    1.7320 H   0  0  0  0  0  0  0  0  0  0  0  0
    6.8565    0.5305   -1.6108 H   0  0  0  0  0  0  0  0  0  0  0  0
   -7.4480    0.2598   -1.9195 H   0  0  0  0  0  0  0  0  0  0  0  0
   -5.1931   -1.5513    1.3127 H   0  0  0  0  0  0  0  0  0  0  0  0
    6.0082   -2.8938   -1.3784 H   0  0  0  0  0  0  0  0  0  0  0  0
    8.4370   -0.5901    1.3483 H   0  0  0  0  0  0  0  0  0  0  0  0
   -9.0222   -1.6335   -1.8320 H   0  0  0  0  0  0  0  0  0  0  0  0
   -6.6947   -3.3535    1.3936 H   0  0  0  0  0  0  0  0  0  0  0  0
    7.7707   -4.6159   -1.4773 H   0  0  0  0  0  0  0  0  0  0  0  0
   10.1880   -2.3232    1.2362 H   0  0  0  0  0  0  0  0  0  0  0  0
    9.8628   -4.3384   -0.1735 H   0  0  0  0  0  0  0  0  0  0  0  0
   -7.6512   -5.2013    0.6004 H   0  0  0  0  0  0  0  0  0  0  0  0
   -8.6656   -4.3011    1.8126 H   0  0  0  0  0  0  0  0  0  0  0  0
   -9.3923   -5.4441    0.6885 H   0  0  0  0  0  0  0  0  0  0  0  0
  1  9  1  0  0  0  0
  1 12  1  0  0  0  0
  2  8  1  0  0  0  0
  2 13  1  0  0  0  0
  3 11  1  0  0  0  0
  3 16  1  0  0  0  0
  4 16  2  0  0  0  0
  5 30  1  0  0  0  0
  5 34  1  0  0  0  0
  6 10  1  0  0  0  0
  6 14  1  0  0  0  0
  6 43  1  0  0  0  0
  7 16  1  0  0  0  0
  7 22  1  0  0  0  0
  7 48  1  0  0  0  0
  8  9  1  0  0  0  0
  8 10  1  0  0  0  0
  8 35  1  0  0  0  0
  9 11  1  0  0  0  0
  9 36  1  0  0  0  0
 10 12  1  0  0  0  0
 10 37  1  0  0  0  0
 11 13  1  0  0  0  0
 11 38  1  0  0  0  0
 12 39  1  0  0  0  0
 12 40  1  0  0  0  0
 13 41  1  0  0  0  0
 13 42  1  0  0  0  0
 14 15  1  0  0  0  0
 14 44  1  0  0  0  0
 14 45  1  0  0  0  0
 15 17  2  0  0  0  0
 15 18  1  0  0  0  0
 17 19  1  0  0  0  0
 17 46  1  0  0  0  0
 18 20  2  0  0  0  0
 18 47  1  0  0  0  0
 19 21  2  0  0  0  0
 19 49  1  0  0  0  0
 20 21  1  0  0  0  0
 20 50  1  0  0  0  0
 21 23  1  0  0  0  0
 22 24  2  0  0  0  0
 22 25  1  0  0  0  0
 23 26  2  0  0  0  0
 23 27  1  0  0  0  0
 24 28  1  0  0  0  0
 24 51  1  0  0  0  0
 25 29  2  0  0  0  0
 25 52  1  0  0  0  0
 26 31  1  0  0  0  0
 26 53  1  0  0  0  0
 27 32  2  0  0  0  0
 27 54  1  0  0  0  0
 28 30  2  0  0  0  0
 28 55  1  0  0  0  0
 29 30  1  0  0  0  0
 29 56  1  0  0  0  0
 31 33  2  0  0  0  0
 31 57  1  0  0  0  0
 32 33  1  0  0  0  0
 32 58  1  0  0  0  0
 33 59  1  0  0  0  0
 34 60  1  0  0  0  0
 34 61  1  0  0  0  0
 34 62  1  0  0  0  0
M  END
> <PUBCHEM_COMPOUND_CID>
11884624

> <PUBCHEM_CONFORMER_RMSD>
1

> <PUBCHEM_CONFORMER_DIVERSEORDER>
1
125
94
39
24
40
42
109
122
9
87
101
72
120
55
36
98
107
102
34
47
88
85
106
117
54
23
13
124
77
83
56
68
57
3
19
74
12
84
73
81
99
91
119
113
69
90
96
115
105
37
27
46
14
8
32
71
78
15
58
48
79
121
28
59
92
22
31
33
44
111
126
82
38
100
51
35
49
80
129
2
67
62
127
45
64
53
50
41
116
18
52
108
93
75
60
65
16
30
89
61
63
11
43
70
21
112
7
103
10
76
110
17
66
20
128
25
123
86
29
97
6
118
4
114
5
95
26
104

> <PUBCHEM_MMFF94_PARTIAL_CHARGES>
47
1 -0.56
10 0.27
11 0.28
12 0.28
13 0.28
14 0.41
15 -0.14
16 0.78
17 -0.15
18 -0.15
19 -0.15
2 -0.56
20 -0.15
22 0.12
24 -0.15
25 -0.15
26 -0.15
27 -0.15
28 -0.15
29 -0.15
3 -0.43
30 0.08
31 -0.15
32 -0.15
33 -0.15
34 0.28
4 -0.57
43 0.36
46 0.15
47 0.15
48 0.37
49 0.15
5 -0.36
50 0.15
51 0.15
52 0.15
53 0.15
54 0.15
55 0.15
56 0.15
57 0.15
58 0.15
59 0.15
6 -0.9
7 -0.55
8 0.28
9 0.28

> <PUBCHEM_EFFECTIVE_ROTOR_COUNT>
10.2

> <PUBCHEM_PHARMACOPHORE_FEATURES>
12
1 1 acceptor
1 2 acceptor
1 4 acceptor
1 5 acceptor
1 6 cation
1 6 donor
1 7 donor
5 1 8 9 10 12 rings
5 2 8 9 11 13 rings
6 15 17 18 19 20 21 rings
6 22 24 25 28 29 30 rings
6 23 26 27 31 32 33 rings

> <PUBCHEM_HEAVY_ATOM_COUNT>
34

> <PUBCHEM_ATOM_DEF_STEREO_COUNT>
4

> <PUBCHEM_ATOM_UDEF_STEREO_COUNT>
0

> <PUBCHEM_BOND_DEF_STEREO_COUNT>
0

> <PUBCHEM_BOND_UDEF_STEREO_COUNT>
0

> <PUBCHEM_ISOTOPIC_ATOM_COUNT>
0

> <PUBCHEM_COMPONENT_COUNT>
1

> <PUBCHEM_CACTVS_TAUTO_COUNT>
2

> <PUBCHEM_CONFORMER_ID>
00B5585000000001

> <PUBCHEM_MMFF94_ENERGY>
113.0477

> <PUBCHEM_FEATURE_SELFOVERLAP>
61.617

> <PUBCHEM_SHAPE_FINGERPRINT>
10055352 69 10809352140040217205
10100884 174 18408601462051792754
10258705 36 17900829555104973883
10280341 67 9583519802396340371
10533779 1 9511457788905902874
10669705 251 18272374123159277398
10740516 88 18336552693907660219
10952577 141 11891327639574152619
11463208 1 17913498931038516438
11497681 19 18407761426620097348
11607047 74 18264488559373421716
117089 54 18341616975692705822
11761917 116 18336550413738877438
11828532 37 18335990864840534790
12013929 112 17822555155082340605
12013929 27 18260546766657066157
12013929 94 18343022173903039534
12061779 8 9871468681937866316
12124843 1 17894348903813454975
14344974 204 18341616962886964478
14359421 15 17895187783925575595
14664723 55 11386351626606756597
14931854 50 17603303756314208329
15152005 1 18411420617727370486
15152005 304 18339936994729606703
15152005 77 18272927211435322775
15198563 99 16370999668414227821
15347591 1 18411982442974782296
15399244 38 18340480179106180622
15455200 90 17313927656185172215
15510800 12 18410569578631134606
15773216 30 18192434293339257084
16067689 391 18117564136067884411
16067689 68 17916882218130707467
16126227 98 9151168757853423137
16993427 108 18130786789450639329
16994733 274 8574435301065605285
19301676 85 18262804089519911611
19303781 99 18341038679467370948
19438510 23 10879984757902129044
19841028 212 18334852835729251136
2026 5 18339079397841269879
208703 8 18410849962575297664
20982279 24 17749965478974254531
21130935 74 18269838769652137369
212700 22 18410001165643434123
21307412 95 17676212385701283697
21585482 111 8934995976061893022
21585483 132 18260542282727331962
21792938 703 18334580144841291304
21987483 16 18199748214304979504
22002106 203 18409441489019322450
23523788 1 17561094574513319060
23569943 247 18340210812839548987
24983565 74 17981597480110417127
25025965 108 17916857054709390447
2835820 83 18410856585922095387
2851757 41 18411422808355876458
3918712 181 8790891778237635582
393628 194 9943222841132265730
406291 66 18411982476964144563
474113 269 18272923934944474533
4760202 70 18187656817190880980
5372103 7 11818991863897460738
5718773 13 18411700976249382572
6201320 82 8574425487091999590
6289498 60 9799696986645933422
636775 72 9438818587544250050
6636798 310 17847066570992920856
6691757 9 15051148118404075868
9896288 288 17915463787711826313

> <PUBCHEM_SHAPE_MULTIPOLES>
660.4
34.11
6.18
1.18
0.94
1.61
-0.15
58.76
-1.46
3.82
0.31
0.24
-0.25
0.57

> <PUBCHEM_SHAPE_SELFOVERLAP>
1439.443

> <PUBCHEM_SHAPE_VOLUME>
360.3

> <PUBCHEM_COORDINATE_TYPE>
2
5
10

$$$$
