56773986
  -OEChem-12032416213D

 67 71  0     1  0  0  0  0  0999 V2000
    4.2730    2.7153   -0.3537 O   0  0  0  0  0  0  0  0  0  0  0  0
   -2.6372   -1.7143   -1.2820 O   0  0  0  0  0  0  0  0  0  0  0  0
   -4.8051    0.1400   -0.7225 O   0  0  0  0  0  0  0  0  0  0  0  0
   -2.5223    0.3736    0.7840 N   0  0  0  0  0  0  0  0  0  0  0  0
    3.0784    3.3997   -0.1653 N   0  0  0  0  0  0  0  0  0  0  0  0
    4.8616   -0.7468   -1.2657 N   0  0  3  0  0  0  0  0  0  0  0  0
   -1.5195    2.6474    0.6385 C   0  0  0  0  0  0  0  0  0  0  0  0
    0.0189    2.5455    0.5787 C   0  0  1  0  0  0  0  0  0  0  0  0
   -1.5061    1.2781    1.3491 C   0  0  2  0  0  0  0  0  0  0  0  0
   -0.1565    1.0142    0.6495 C   0  0  0  0  0  0  0  0  0  0  0  0
    0.6944    3.0442   -0.6784 C   0  0  0  0  0  0  0  0  0  0  0  0
   -2.0218    3.8393    1.4249 C   0  0  0  0  0  0  0  0  0  0  0  0
   -2.2327    2.5870   -0.7016 C   0  0  0  0  0  0  0  0  0  0  0  0
   -2.0972   -1.0110    0.9852 C   0  0  0  0  0  0  0  0  0  0  0  0
   -3.8038    0.6197    1.4439 C   0  0  0  0  0  0  0  0  0  0  0  0
    2.1412    2.6136   -0.7027 C   0  0  0  0  0  0  0  0  0  0  0  0
   -2.7991   -1.9552    0.0456 C   0  0  0  0  0  0  0  0  0  0  0  0
   -4.9619    0.1116    0.6271 C   0  0  0  0  0  0  0  0  0  0  0  0
    2.6798    1.4317   -1.2400 C   0  0  0  0  0  0  0  0  0  0  0  0
    4.0227    1.5450   -0.9946 C   0  0  0  0  0  0  0  0  0  0  0  0
   -3.6018   -3.0546    0.2429 C   0  0  0  0  0  0  0  0  0  0  0  0
   -6.1961   -0.3971    0.9596 C   0  0  0  0  0  0  0  0  0  0  0  0
    5.1827    0.6907   -1.2757 C   0  0  0  0  0  0  0  0  0  0  0  0
   -3.9557   -3.5193   -1.0462 C   0  0  0  0  0  0  0  0  0  0  0  0
   -6.8386   -0.7009   -0.2643 C   0  0  0  0  0  0  0  0  0  0  0  0
   -3.3441   -2.6705   -1.9395 C   0  0  0  0  0  0  0  0  0  0  0  0
   -5.9515   -0.3559   -1.2575 C   0  0  0  0  0  0  0  0  0  0  0  0
    4.5153   -1.3655   -2.5306 C   0  0  0  0  0  0  0  0  0  0  0  0
    4.8878   -1.4635   -0.0787 C   0  0  0  0  0  0  0  0  0  0  0  0
    4.9922   -2.8542   -0.1057 C   0  0  0  0  0  0  0  0  0  0  0  0
    4.8093   -0.7936    1.1422 C   0  0  0  0  0  0  0  0  0  0  0  0
    5.0183   -3.5750    1.0883 C   0  0  0  0  0  0  0  0  0  0  0  0
    4.8355   -1.5143    2.3361 C   0  0  0  0  0  0  0  0  0  0  0  0
    4.9399   -2.9050    2.3092 C   0  0  0  0  0  0  0  0  0  0  0  0
    0.5017    2.9441    1.4846 H   0  0  0  0  0  0  0  0  0  0  0  0
   -1.4362    1.3086    2.4442 H   0  0  0  0  0  0  0  0  0  0  0  0
   -0.1924    0.5330   -0.3369 H   0  0  0  0  0  0  0  0  0  0  0  0
    0.5938    0.4983    1.2580 H   0  0  0  0  0  0  0  0  0  0  0  0
    0.6371    4.1385   -0.7286 H   0  0  0  0  0  0  0  0  0  0  0  0
    0.2209    2.6620   -1.5898 H   0  0  0  0  0  0  0  0  0  0  0  0
   -1.5704    3.8801    2.4225 H   0  0  0  0  0  0  0  0  0  0  0  0
   -1.7771    4.7786    0.9165 H   0  0  0  0  0  0  0  0  0  0  0  0
   -3.1075    3.8097    1.5615 H   0  0  0  0  0  0  0  0  0  0  0  0
   -2.0303    3.4958   -1.2825 H   0  0  0  0  0  0  0  0  0  0  0  0
   -1.9318    1.7445   -1.3342 H   0  0  0  0  0  0  0  0  0  0  0  0
   -3.3218    2.5513   -0.5889 H   0  0  0  0  0  0  0  0  0  0  0  0
   -2.2469   -1.3351    2.0241 H   0  0  0  0  0  0  0  0  0  0  0  0
   -1.0331   -1.1786    0.7871 H   0  0  0  0  0  0  0  0  0  0  0  0
   -3.9854    1.6933    1.5679 H   0  0  0  0  0  0  0  0  0  0  0  0
   -3.8375    0.1933    2.4551 H   0  0  0  0  0  0  0  0  0  0  0  0
    2.1661    0.6196   -1.7330 H   0  0  0  0  0  0  0  0  0  0  0  0
   -3.8972   -3.4700    1.1957 H   0  0  0  0  0  0  0  0  0  0  0  0
   -6.5851   -0.5336    1.9583 H   0  0  0  0  0  0  0  0  0  0  0  0
    5.5738    0.9635   -2.2650 H   0  0  0  0  0  0  0  0  0  0  0  0
    6.0119    0.9044   -0.5885 H   0  0  0  0  0  0  0  0  0  0  0  0
   -4.5798   -4.3658   -1.2935 H   0  0  0  0  0  0  0  0  0  0  0  0
   -7.8245   -1.1195   -0.4052 H   0  0  0  0  0  0  0  0  0  0  0  0
   -3.3160   -2.6138   -3.0177 H   0  0  0  0  0  0  0  0  0  0  0  0
   -5.9829   -0.3994   -2.3363 H   0  0  0  0  0  0  0  0  0  0  0  0
    4.3169   -0.6168   -3.3060 H   0  0  0  0  0  0  0  0  0  0  0  0
    3.6065   -1.9713   -2.4412 H   0  0  0  0  0  0  0  0  0  0  0  0
    5.3347   -1.9958   -2.8922 H   0  0  0  0  0  0  0  0  0  0  0  0
    5.0655   -3.4116   -1.0350 H   0  0  0  0  0  0  0  0  0  0  0  0
    4.7214    0.2836    1.2269 H   0  0  0  0  0  0  0  0  0  0  0  0
    5.1018   -4.6577    1.0679 H   0  0  0  0  0  0  0  0  0  0  0  0
    4.7732   -0.9935    3.2872 H   0  0  0  0  0  0  0  0  0  0  0  0
    4.9604   -3.4661    3.2389 H   0  0  0  0  0  0  0  0  0  0  0  0
  1  5  1  0  0  0  0
  1 20  1  0  0  0  0
  2 17  1  0  0  0  0
  2 26  1  0  0  0  0
  3 18  1  0  0  0  0
  3 27  1  0  0  0  0
  4  9  1  0  0  0  0
  4 14  1  0  0  0  0
  4 15  1  0  0  0  0
  5 16  2  0  0  0  0
  6 23  1  0  0  0  0
  6 28  1  0  0  0  0
  6 29  1  0  0  0  0
  7  8  1  0  0  0  0
  7  9  1  0  0  0  0
  7 12  1  0  0  0  0
  7 13  1  0  0  0  0
  8 10  1  0  0  0  0
  8 11  1  0  0  0  0
  8 35  1  0  0  0  0
  9 10  1  0  0  0  0
  9 36  1  0  0  0  0
 10 37  1  0  0  0  0
 10 38  1  0  0  0  0
 11 16  1  0  0  0  0
 11 39  1  0  0  0  0
 11 40  1  0  0  0  0
 12 41  1  0  0  0  0
 12 42  1  0  0  0  0
 12 43  1  0  0  0  0
 13 44  1  0  0  0  0
 13 45  1  0  0  0  0
 13 46  1  0  0  0  0
 14 17  1  0  0  0  0
 14 47  1  0  0  0  0
 14 48  1  0  0  0  0
 15 18  1  0  0  0  0
 15 49  1  0  0  0  0
 15 50  1  0  0  0  0
 16 19  1  0  0  0  0
 17 21  2  0  0  0  0
 18 22  2  0  0  0  0
 19 20  2  0  0  0  0
 19 51  1  0  0  0  0
 20 23  1  0  0  0  0
 21 24  1  0  0  0  0
 21 52  1  0  0  0  0
 22 25  1  0  0  0  0
 22 53  1  0  0  0  0
 23 54  1  0  0  0  0
 23 55  1  0  0  0  0
 24 26  2  0  0  0  0
 24 56  1  0  0  0  0
 25 27  2  0  0  0  0
 25 57  1  0  0  0  0
 26 58  1  0  0  0  0
 27 59  1  0  0  0  0
 28 60  1  0  0  0  0
 28 61  1  0  0  0  0
 28 62  1  0  0  0  0
 29 30  2  0  0  0  0
 29 31  1  0  0  0  0
 30 32  1  0  0  0  0
 30 63  1  0  0  0  0
 31 33  2  0  0  0  0
 31 64  1  0  0  0  0
 32 34  2  0  0  0  0
 32 65  1  0  0  0  0
 33 34  1  0  0  0  0
 33 66  1  0  0  0  0
 34 67  1  0  0  0  0
M  END
> <PUBCHEM_COMPOUND_CID>
56773986

> <PUBCHEM_CONFORMER_RMSD>
1.6

> <PUBCHEM_CONFORMER_DIVERSEORDER>
1
70
71
52
17
48
36
26
45
7
42
21
46
57
59
50
65
47
22
25
67
28
8
37
62
34
4
51
41
29
60
39
24
56
69
53
66
72
38
55
5
11
49
20
3
9
15
40
14
63
43
35
68
2
13
33
6
58
30
31
64
44
23
54
12
10
27
16
18
32
19
61

> <PUBCHEM_MMFF94_PARTIAL_CHARGES>
41
1 -0.02
11 0.18
14 0.45
15 0.45
16 0.11
17 -0.04
18 -0.04
19 -0.15
2 -0.28
20 -0.04
21 -0.15
22 -0.15
23 0.55
24 -0.15
25 -0.15
26 -0.01
27 -0.01
28 0.37
29 0.1
3 -0.28
30 -0.15
31 -0.15
32 -0.15
33 -0.15
34 -0.15
4 -0.75
5 -0.41
51 0.15
52 0.15
53 0.15
56 0.15
57 0.15
58 0.15
59 0.15
6 -0.84
63 0.15
64 0.15
65 0.15
66 0.15
67 0.15
9 0.21

> <PUBCHEM_EFFECTIVE_ROTOR_COUNT>
10.8

> <PUBCHEM_PHARMACOPHORE_FEATURES>
11
1 2 acceptor
1 3 acceptor
1 4 cation
1 5 acceptor
1 6 cation
3 7 12 13 hydrophobe
4 7 8 9 10 rings
5 1 5 16 19 20 rings
5 2 17 21 24 26 rings
5 3 18 22 25 27 rings
6 29 30 31 32 33 34 rings

> <PUBCHEM_HEAVY_ATOM_COUNT>
34

> <PUBCHEM_ATOM_DEF_STEREO_COUNT>
2

> <PUBCHEM_ATOM_UDEF_STEREO_COUNT>
0

> <PUBCHEM_BOND_DEF_STEREO_COUNT>
0

> <PUBCHEM_BOND_UDEF_STEREO_COUNT>
0

> <PUBCHEM_ISOTOPIC_ATOM_COUNT>
0

> <PUBCHEM_COMPONENT_COUNT>
1

> <PUBCHEM_CACTVS_TAUTO_COUNT>
1

> <PUBCHEM_CONFORMER_ID>
03624D6200000001

> <PUBCHEM_MMFF94_ENERGY>
85.9497

> <PUBCHEM_FEATURE_SELFOVERLAP>
55.825

> <PUBCHEM_SHAPE_FINGERPRINT>
10254770 206 18264761082804649466
10462674 125 14042318862220135708
10622 236 18189896427064096192
10928967 22 18190474753301176002
12373685 5 17130686457527947141
13533116 47 18334298664889468664
14347332 77 18336547123081850273
14705955 166 16414362143739462402
15001296 14 18410293652868370766
15183329 4 18412547643426405735
15250474 111 18410862057778346080
16628084 112 18261395507997492985
18393751 57 9151181961279814701
19958102 18 18186516601366795165
208703 8 18261395482096418250
21458453 9 13829845889235722309
21585480 29 17972013887975963578
21703447 108 18342175605089018984
23559900 14 17700976806638162081
3004659 81 18411987987338477508
3729539 64 18186519891353629955
397830 11 12895064150670428157
4394409 98 18191290594913015855
463206 1 18339368577060108593
5081480 168 16878211030995440167
5085150 59 18129938958843465845
6201320 77 17243898729176298497

> <PUBCHEM_SHAPE_MULTIPOLES>
667.15
16.35
5.11
1.98
0.42
0.59
-0.01
-11.78
0.44
-2.16
-0.24
-1.81
-0.96
-3.91

> <PUBCHEM_SHAPE_SELFOVERLAP>
1445.077

> <PUBCHEM_SHAPE_VOLUME>
370.3

> <PUBCHEM_COORDINATE_TYPE>
2
5
10

$$$$
