56775535
  -OEChem-12032416343D

 46 49  0     0  0  0  0  0  0999 V2000
   -0.8721    3.7870    1.2917 O   0  0  0  0  0  0  0  0  0  0  0  0
   -5.0144    0.0534    0.0051 O   0  0  0  0  0  0  0  0  0  0  0  0
   -4.8412   -2.7271    1.1374 O   0  0  0  0  0  0  0  0  0  0  0  0
   -0.2727    0.9977    0.2669 N   0  0  0  0  0  0  0  0  0  0  0  0
   -4.3023    1.2250   -0.2212 N   0  0  0  0  0  0  0  0  0  0  0  0
    3.0308   -2.0730   -0.6151 N   0  0  0  0  0  0  0  0  0  0  0  0
   -1.1700    2.1212   -0.0092 C   0  0  0  0  0  0  0  0  0  0  0  0
   -0.3570    3.4109   -0.0059 C   0  0  0  0  0  0  0  0  0  0  0  0
   -1.7398    2.6306    1.3097 C   0  0  0  0  0  0  0  0  0  0  0  0
   -2.1037    1.8555   -1.1502 C   0  0  0  0  0  0  0  0  0  0  0  0
    0.4614    0.6591   -0.9557 C   0  0  0  0  0  0  0  0  0  0  0  0
   -3.1475    0.8284   -0.7636 C   0  0  0  0  0  0  0  0  0  0  0  0
    1.7496   -0.0279   -0.6754 C   0  0  0  0  0  0  0  0  0  0  0  0
   -3.0750   -0.5685   -0.9024 C   0  0  0  0  0  0  0  0  0  0  0  0
   -4.2732   -1.0078   -0.4045 C   0  0  0  0  0  0  0  0  0  0  0  0
    2.8573    0.6763   -0.2257 C   0  0  0  0  0  0  0  0  0  0  0  0
    1.8880   -1.3895   -0.8525 C   0  0  0  0  0  0  0  0  0  0  0  0
    4.0612    0.0070    0.0321 C   0  0  0  0  0  0  0  0  0  0  0  0
   -4.8793   -2.3341   -0.2373 C   0  0  0  0  0  0  0  0  0  0  0  0
    4.1042   -1.3870   -0.1788 C   0  0  0  0  0  0  0  0  0  0  0  0
    5.2007    0.6913    0.4882 C   0  0  0  0  0  0  0  0  0  0  0  0
    5.3003   -2.0515    0.0777 C   0  0  0  0  0  0  0  0  0  0  0  0
    6.3839    0.0016    0.7365 C   0  0  0  0  0  0  0  0  0  0  0  0
    6.4333   -1.3716    0.5312 C   0  0  0  0  0  0  0  0  0  0  0  0
   -5.4225   -4.0072    1.3210 C   0  0  0  0  0  0  0  0  0  0  0  0
    0.7351    3.3396    0.0141 H   0  0  0  0  0  0  0  0  0  0  0  0
   -0.6427    4.1507   -0.7617 H   0  0  0  0  0  0  0  0  0  0  0  0
   -2.7856    2.9533    1.2983 H   0  0  0  0  0  0  0  0  0  0  0  0
   -1.5731    2.0184    2.2024 H   0  0  0  0  0  0  0  0  0  0  0  0
   -1.6122    1.5599   -2.0829 H   0  0  0  0  0  0  0  0  0  0  0  0
   -2.6385    2.7809   -1.4095 H   0  0  0  0  0  0  0  0  0  0  0  0
   -0.7249    0.1632    0.6382 H   0  0  0  0  0  0  0  0  0  0  0  0
    0.7002    1.5431   -1.5627 H   0  0  0  0  0  0  0  0  0  0  0  0
   -0.1493    0.0132   -1.5977 H   0  0  0  0  0  0  0  0  0  0  0  0
   -2.2758   -1.1721   -1.3057 H   0  0  0  0  0  0  0  0  0  0  0  0
    2.7892    1.7518   -0.0743 H   0  0  0  0  0  0  0  0  0  0  0  0
    1.0625   -2.0035   -1.1996 H   0  0  0  0  0  0  0  0  0  0  0  0
   -5.9205   -2.3124   -0.5805 H   0  0  0  0  0  0  0  0  0  0  0  0
   -4.3358   -3.0726   -0.8385 H   0  0  0  0  0  0  0  0  0  0  0  0
    5.1727    1.7662    0.6525 H   0  0  0  0  0  0  0  0  0  0  0  0
    5.3651   -3.1273   -0.0755 H   0  0  0  0  0  0  0  0  0  0  0  0
    7.2623    0.5336    1.0887 H   0  0  0  0  0  0  0  0  0  0  0  0
    7.3523   -1.9178    0.7226 H   0  0  0  0  0  0  0  0  0  0  0  0
   -6.4739   -4.0002    1.0172 H   0  0  0  0  0  0  0  0  0  0  0  0
   -4.8721   -4.7652    0.7552 H   0  0  0  0  0  0  0  0  0  0  0  0
   -5.3699   -4.2608    2.3832 H   0  0  0  0  0  0  0  0  0  0  0  0
  1  8  1  0  0  0  0
  1  9  1  0  0  0  0
  2  5  1  0  0  0  0
  2 15  1  0  0  0  0
  3 19  1  0  0  0  0
  3 25  1  0  0  0  0
  4  7  1  0  0  0  0
  4 11  1  0  0  0  0
  4 32  1  0  0  0  0
  5 12  2  0  0  0  0
  6 17  2  0  0  0  0
  6 20  1  0  0  0  0
  7  8  1  0  0  0  0
  7  9  1  0  0  0  0
  7 10  1  0  0  0  0
  8 26  1  0  0  0  0
  8 27  1  0  0  0  0
  9 28  1  0  0  0  0
  9 29  1  0  0  0  0
 10 12  1  0  0  0  0
 10 30  1  0  0  0  0
 10 31  1  0  0  0  0
 11 13  1  0  0  0  0
 11 33  1  0  0  0  0
 11 34  1  0  0  0  0
 12 14  1  0  0  0  0
 13 16  2  0  0  0  0
 13 17  1  0  0  0  0
 14 15  2  0  0  0  0
 14 35  1  0  0  0  0
 15 19  1  0  0  0  0
 16 18  1  0  0  0  0
 16 36  1  0  0  0  0
 17 37  1  0  0  0  0
 18 20  1  0  0  0  0
 18 21  2  0  0  0  0
 19 38  1  0  0  0  0
 19 39  1  0  0  0  0
 20 22  2  0  0  0  0
 21 23  1  0  0  0  0
 21 40  1  0  0  0  0
 22 24  1  0  0  0  0
 22 41  1  0  0  0  0
 23 24  2  0  0  0  0
 23 42  1  0  0  0  0
 24 43  1  0  0  0  0
 25 44  1  0  0  0  0
 25 45  1  0  0  0  0
 25 46  1  0  0  0  0
M  END
> <PUBCHEM_COMPOUND_CID>
56775535

> <PUBCHEM_CONFORMER_RMSD>
0.8

> <PUBCHEM_CONFORMER_DIVERSEORDER>
1
147
162
23
58
72
223
239
85
30
227
166
41
191
114
53
149
189
115
79
170
99
29
27
216
116
182
143
202
47
66
86
109
130
211
225
59
78
157
159
62
104
134
67
32
69
123
95
92
155
91
203
64
192
221
208
38
122
74
108
81
28
186
61
119
235
173
142
18
219
199
183
197
126
106
80
141
190
194
20
31
63
178
209
56
55
206
84
16
107
43
45
164
205
226
148
154
200
14
237
93
132
89
39
13
222
250
44
201
5
249
228
71
131
214
218
102
248
90
36
112
210
88
25
7
156
179
124
60
231
121
120
65
165
70
207
117
167
145
135
245
153
204
244
246
163
137
76
193
215
82
139
230
138
6
151
21
144
57
75
51
42
33
176
129
236
24
224
96
50
198
195
172
26
110
229
184
247
12
238
17
37
127
233
150
212
185
46
217
140
98
48
175
19
103
15
40
158
10
68
34
220
125
243
11
146
35
87
113
73
94
4
133
111
160
49
188
196
242
187
128
161
152
240
181
213
8
136
234
22
101
97
232
168
77
241
52
171
100
169
83
174
2
105
54
177
3
9
118
180

> <PUBCHEM_MMFF94_PARTIAL_CHARGES>
32
1 -0.52
10 0.18
11 0.41
12 0.11
13 -0.14
14 -0.15
15 -0.04
16 -0.15
17 0.16
19 0.46
2 -0.02
20 0.31
21 -0.15
22 -0.15
23 -0.15
24 -0.15
25 0.28
3 -0.56
32 0.36
35 0.15
36 0.15
37 0.15
4 -0.84
40 0.15
41 0.15
42 0.15
43 0.15
5 -0.41
6 -0.62
7 0.21
8 0.26
9 0.26

> <PUBCHEM_EFFECTIVE_ROTOR_COUNT>
7.8

> <PUBCHEM_PHARMACOPHORE_FEATURES>
10
1 1 acceptor
1 3 acceptor
1 4 cation
1 4 donor
1 5 acceptor
1 6 acceptor
4 1 7 8 9 rings
5 2 5 12 14 15 rings
6 18 20 21 22 23 24 rings
6 6 13 16 17 18 20 rings

> <PUBCHEM_HEAVY_ATOM_COUNT>
25

> <PUBCHEM_ATOM_DEF_STEREO_COUNT>
0

> <PUBCHEM_ATOM_UDEF_STEREO_COUNT>
0

> <PUBCHEM_BOND_DEF_STEREO_COUNT>
0

> <PUBCHEM_BOND_UDEF_STEREO_COUNT>
0

> <PUBCHEM_ISOTOPIC_ATOM_COUNT>
0

> <PUBCHEM_COMPONENT_COUNT>
1

> <PUBCHEM_CACTVS_TAUTO_COUNT>
1

> <PUBCHEM_CONFORMER_ID>
0362536F00000001

> <PUBCHEM_MMFF94_ENERGY>
63.8656

> <PUBCHEM_FEATURE_SELFOVERLAP>
50.779

> <PUBCHEM_SHAPE_FINGERPRINT>
11045515 52 18187080620345651916
11796584 16 18041267812412295383
11828532 37 17245278757982946555
12107183 9 17189816749923980330
12166972 35 17894352198380464484
12596602 18 18187075144936530026
12633257 1 15984817172855867589
13631057 29 18409162199484450798
13911882 115 18131074796983177198
14211702 104 18409169883608750398
14341114 176 18342455886063885692
14347329 18 10447933840904661559
14565420 104 16335001439047378529
14844126 61 18342735205051604363
15183329 4 7853575738257173798
15927050 60 17480013542345461596
17138139 8 17603860147974271402
17349148 13 17894638011321473628
17492 89 18198903604944734270
20567600 70 18335982077183927323
21796203 349 18053407636216937587
23559900 14 18339629071306902648
314194 84 18198058282302705231
329604 57 18335142041494055070
3421961 26 18122630719807050675
350125 39 18272927216283715724
392239 28 18342178864393118136
4015057 19 15140976070666477932
4073 2 18337111164267739826
439807 62 17968381268660542963
5104073 3 17986381188908506538
5486654 36 18337679702363724251
6009941 240 18260540109473490295
6431902 208 18409725188193266063

> <PUBCHEM_SHAPE_MULTIPOLES>
481.94
15.17
4.1
1.11
8.58
0.1
0.16
-13.81
3.45
-6.01
1.82
-0.72
0.05
1.46

> <PUBCHEM_SHAPE_SELFOVERLAP>
1044.671

> <PUBCHEM_SHAPE_VOLUME>
265.7

> <PUBCHEM_COORDINATE_TYPE>
2
5
10

$$$$
