38344451
  -OEChem-12032416283D

 54 57  0     1  0  0  0  0  0999 V2000
    3.2910    0.6615   -0.1034 O   0  0  0  0  0  0  0  0  0  0  0  0
   -6.5042   -0.4295    1.3038 O   0  0  0  0  0  0  0  0  0  0  0  0
   -6.1695   -2.1713   -0.1176 O   0  0  0  0  0  0  0  0  0  0  0  0
    0.2083    1.0734   -0.5336 N   0  0  1  0  0  0  0  0  0  0  0  0
    1.1980    3.6140    2.0573 N   0  0  0  0  0  0  0  0  0  0  0  0
    2.4084   -0.9287   -1.5507 N   0  0  0  0  0  0  0  0  0  0  0  0
    2.4027    4.5381    0.4157 N   0  0  0  0  0  0  0  0  0  0  0  0
    1.4093    1.3211   -1.3754 C   0  0  1  0  0  0  0  0  0  0  0  0
    1.9814    2.7670   -1.3533 C   0  0  0  0  0  0  0  0  0  0  0  0
    0.3729    1.4927    0.8848 C   0  0  0  0  0  0  0  0  0  0  0  0
    1.0980    2.7784    0.9871 C   0  0  0  0  0  0  0  0  0  0  0  0
    1.8478    3.3623   -0.0035 C   0  0  0  0  0  0  0  0  0  0  0  0
   -0.9819    1.6873   -1.1293 C   0  0  0  0  0  0  0  0  0  0  0  0
    2.4554    0.3291   -0.9482 C   0  0  0  0  0  0  0  0  0  0  0  0
   -2.2418    0.9596   -0.7415 C   0  0  0  0  0  0  0  0  0  0  0  0
    1.9941    4.6611    1.6635 C   0  0  0  0  0  0  0  0  0  0  0  0
    3.3638   -1.9855   -1.2286 C   0  0  0  0  0  0  0  0  0  0  0  0
    1.4026   -1.2793   -2.5453 C   0  0  0  0  0  0  0  0  0  0  0  0
   -2.5591   -0.2560   -1.3475 C   0  0  0  0  0  0  0  0  0  0  0  0
   -3.0913    1.5009    0.2235 C   0  0  0  0  0  0  0  0  0  0  0  0
    2.8693   -2.8675   -0.1131 C   0  0  0  0  0  0  0  0  0  0  0  0
   -3.7259   -0.9305   -0.9885 C   0  0  0  0  0  0  0  0  0  0  0  0
   -4.2582    0.8263    0.5823 C   0  0  0  0  0  0  0  0  0  0  0  0
   -4.5755   -0.3894   -0.0235 C   0  0  0  0  0  0  0  0  0  0  0  0
    3.1696   -2.5515    1.2119 C   0  0  0  0  0  0  0  0  0  0  0  0
    2.1106   -4.0010   -0.4050 C   0  0  0  0  0  0  0  0  0  0  0  0
    2.7113   -3.3690    2.2451 C   0  0  0  0  0  0  0  0  0  0  0  0
    1.6521   -4.8184    0.6282 C   0  0  0  0  0  0  0  0  0  0  0  0
   -5.7920   -1.0926    0.3517 C   0  0  0  0  0  0  0  0  0  0  0  0
    1.9526   -4.5024    1.9532 C   0  0  0  0  0  0  0  0  0  0  0  0
    1.1773    1.1315   -2.4284 H   0  0  0  0  0  0  0  0  0  0  0  0
    1.4110    3.3894   -2.0541 H   0  0  0  0  0  0  0  0  0  0  0  0
    3.0294    2.7856   -1.6732 H   0  0  0  0  0  0  0  0  0  0  0  0
    0.9565    0.7204    1.4014 H   0  0  0  0  0  0  0  0  0  0  0  0
   -0.5814    1.5379    1.4183 H   0  0  0  0  0  0  0  0  0  0  0  0
   -0.9339    1.6446   -2.2266 H   0  0  0  0  0  0  0  0  0  0  0  0
   -1.0599    2.7571   -0.8945 H   0  0  0  0  0  0  0  0  0  0  0  0
    0.7735    3.4912    2.9672 H   0  0  0  0  0  0  0  0  0  0  0  0
    2.2348    5.4752    2.3324 H   0  0  0  0  0  0  0  0  0  0  0  0
    4.3104   -1.5209   -0.9249 H   0  0  0  0  0  0  0  0  0  0  0  0
    3.5907   -2.5681   -2.1300 H   0  0  0  0  0  0  0  0  0  0  0  0
    1.6143   -0.7328   -3.4692 H   0  0  0  0  0  0  0  0  0  0  0  0
    0.4050   -1.0275   -2.1856 H   0  0  0  0  0  0  0  0  0  0  0  0
    1.4206   -2.3487   -2.7705 H   0  0  0  0  0  0  0  0  0  0  0  0
   -1.9123   -0.6859   -2.1065 H   0  0  0  0  0  0  0  0  0  0  0  0
   -2.8575    2.4484    0.7015 H   0  0  0  0  0  0  0  0  0  0  0  0
   -3.9561   -1.8755   -1.4735 H   0  0  0  0  0  0  0  0  0  0  0  0
   -4.8912    1.2837    1.3375 H   0  0  0  0  0  0  0  0  0  0  0  0
    3.7609   -1.6728    1.4547 H   0  0  0  0  0  0  0  0  0  0  0  0
    1.8744   -4.2656   -1.4317 H   0  0  0  0  0  0  0  0  0  0  0  0
    2.9454   -3.1231    3.2768 H   0  0  0  0  0  0  0  0  0  0  0  0
    1.0628   -5.7019    0.4011 H   0  0  0  0  0  0  0  0  0  0  0  0
    1.5961   -5.1391    2.7575 H   0  0  0  0  0  0  0  0  0  0  0  0
   -7.3221   -0.9120    1.5498 H   0  0  0  0  0  0  0  0  0  0  0  0
  1 14  2  0  0  0  0
  2 29  1  0  0  0  0
  2 54  1  0  0  0  0
  3 29  2  0  0  0  0
  4  8  1  0  0  0  0
  4 10  1  0  0  0  0
  4 13  1  0  0  0  0
  5 11  1  0  0  0  0
  5 16  1  0  0  0  0
  5 38  1  0  0  0  0
  6 14  1  0  0  0  0
  6 17  1  0  0  0  0
  6 18  1  0  0  0  0
  7 12  1  0  0  0  0
  7 16  2  0  0  0  0
  8  9  1  0  0  0  0
  8 14  1  0  0  0  0
  8 31  1  0  0  0  0
  9 12  1  0  0  0  0
  9 32  1  0  0  0  0
  9 33  1  0  0  0  0
 10 11  1  0  0  0  0
 10 34  1  0  0  0  0
 10 35  1  0  0  0  0
 11 12  2  0  0  0  0
 13 15  1  0  0  0  0
 13 36  1  0  0  0  0
 13 37  1  0  0  0  0
 15 19  2  0  0  0  0
 15 20  1  0  0  0  0
 16 39  1  0  0  0  0
 17 21  1  0  0  0  0
 17 40  1  0  0  0  0
 17 41  1  0  0  0  0
 18 42  1  0  0  0  0
 18 43  1  0  0  0  0
 18 44  1  0  0  0  0
 19 22  1  0  0  0  0
 19 45  1  0  0  0  0
 20 23  2  0  0  0  0
 20 46  1  0  0  0  0
 21 25  2  0  0  0  0
 21 26  1  0  0  0  0
 22 24  2  0  0  0  0
 22 47  1  0  0  0  0
 23 24  1  0  0  0  0
 23 48  1  0  0  0  0
 24 29  1  0  0  0  0
 25 27  1  0  0  0  0
 25 49  1  0  0  0  0
 26 28  2  0  0  0  0
 26 50  1  0  0  0  0
 27 30  2  0  0  0  0
 27 51  1  0  0  0  0
 28 30  1  0  0  0  0
 28 52  1  0  0  0  0
 30 53  1  0  0  0  0
M  END
> <PUBCHEM_COMPOUND_CID>
38344451

> <PUBCHEM_CONFORMER_RMSD>
1

> <PUBCHEM_CONFORMER_DIVERSEORDER>
1
43
73
3
32
123
106
124
88
5
109
8
92
39
94
111
116
59
113
127
98
50
37
46
119
6
97
22
83
53
105
27
21
96
108
51
75
31
52
36
62
71
54
81
118
110
77
82
80
38
69
76
58
89
78
42
61
122
9
112
19
47
30
60
87
103
68
70
114
45
15
55
56
67
65
25
104
100
117
93
11
120
29
17
2
49
125
121
72
12
10
64
66
44
84
115
18
35
63
99
7
34
102
40
86
107
41
33
26
74
90
20
95
14
91
13
57
24
48
16
85
101
23
126
79
4
28

> <PUBCHEM_MMFF94_PARTIAL_CHARGES>
42
1 -0.57
10 0.45
11 -0.33
12 0.05
13 0.41
14 0.57
15 -0.14
16 0.04
17 0.44
18 0.3
19 -0.15
2 -0.65
20 -0.15
21 -0.14
22 -0.15
23 -0.15
24 0.09
25 -0.15
26 -0.15
27 -0.15
28 -0.15
29 0.63
3 -0.57
30 -0.15
38 0.27
39 0.15
4 -0.81
45 0.15
46 0.15
47 0.15
48 0.15
49 0.15
5 0.03
50 0.15
51 0.15
52 0.15
53 0.15
54 0.5
6 -0.66
7 -0.57
8 0.33
9 0.18

> <PUBCHEM_EFFECTIVE_ROTOR_COUNT>
7.8

> <PUBCHEM_PHARMACOPHORE_FEATURES>
11
1 1 acceptor
1 2 acceptor
1 3 acceptor
1 4 cation
1 5 donor
3 2 3 29 anion
3 5 7 16 cation
5 5 7 11 12 16 rings
6 15 19 20 22 23 24 rings
6 21 25 26 27 28 30 rings
6 4 8 9 10 11 12 rings

> <PUBCHEM_HEAVY_ATOM_COUNT>
30

> <PUBCHEM_ATOM_DEF_STEREO_COUNT>
1

> <PUBCHEM_ATOM_UDEF_STEREO_COUNT>
0

> <PUBCHEM_BOND_DEF_STEREO_COUNT>
0

> <PUBCHEM_BOND_UDEF_STEREO_COUNT>
0

> <PUBCHEM_ISOTOPIC_ATOM_COUNT>
0

> <PUBCHEM_COMPONENT_COUNT>
1

> <PUBCHEM_CACTVS_TAUTO_COUNT>
2

> <PUBCHEM_CONFORMER_ID>
0249170300000001

> <PUBCHEM_MMFF94_ENERGY>
86.4116

> <PUBCHEM_FEATURE_SELFOVERLAP>
55.977

> <PUBCHEM_SHAPE_FINGERPRINT>
10074138 170 17044547598045396920
10305334 12 15618283005805001697
11421498 54 18267594498889501262
114674 6 18336270140403138503
11552529 35 17474099900754513106
11991303 11 17610624490070149436
12107183 9 18052834555026638937
12160290 23 16979267978065631548
12522641 24 18339659897257455563
12788726 201 17836098775118115932
12977781 61 17753853282805584311
13004483 165 17835236740664249972
13533116 47 18339932610268448111
13692114 37 17908135834743562266
14068700 675 18117561717721415702
14705955 166 16403341571201166392
14863182 85 18045504368006117813
15475509 35 18188789318098421411
15776043 110 18052569628558608553
17868525 174 18341333276081607145
18681886 176 17489599981841851548
20775530 9 18192425277685281855
21033648 29 16342289139575328667
21049683 118 17125897087466207121
21421861 104 18344148107056914353
21703447 108 18340761624634726685
23845131 108 17764863989245318481
25222932 49 18411418384418009150
345986 75 18050573945411641889
4058900 60 18196382639045707985
463206 1 18189625955472526627
6086070 43 18198055890549707805
613672 6 18053086333813358159
6697151 62 18197760143106470653
79837 15 17618775203467025928
86090 222 17823159941521687387

> <PUBCHEM_SHAPE_MULTIPOLES>
579.85
9.65
7.07
2
20.09
1.92
-0.08
-10.3
-1.82
-8.47
-4.31
-1.5
-0.17
-0.63

> <PUBCHEM_SHAPE_SELFOVERLAP>
1261.014

> <PUBCHEM_SHAPE_VOLUME>
314.7

> <PUBCHEM_COORDINATE_TYPE>
2
5
10

$$$$
