71694218
  -OEChem-12032416203D

 42 45  0     1  0  0  0  0  0999 V2000
   -4.9554    1.0659   -2.2995 F   0  0  0  0  0  0  0  0  0  0  0  0
    3.7596   -2.6714   -0.7857 O   0  0  0  0  0  0  0  0  0  0  0  0
    3.0133    0.0354   -0.2237 N   0  0  1  0  0  0  0  0  0  0  0  0
   -0.4995   -0.6530   -0.3083 N   0  0  0  0  0  0  0  0  0  0  0  0
    0.5717   -0.6889    1.6366 N   0  0  0  0  0  0  0  0  0  0  0  0
    3.2815    2.4544    0.0161 C   0  0  0  0  0  0  0  0  0  0  0  0
    2.7580    2.9958    1.3178 C   0  0  0  0  0  0  0  0  0  0  0  0
    2.6873    3.8344    0.0723 C   0  0  0  0  0  0  0  0  0  0  0  0
    2.5576    1.3516   -0.6859 C   0  0  0  0  0  0  0  0  0  0  0  0
    1.9906   -1.0190   -0.4420 C   0  0  1  0  0  0  0  0  0  0  0  0
    4.2636   -0.3148   -0.9212 C   0  0  0  0  0  0  0  0  0  0  0  0
    2.5622   -2.3980   -0.0584 C   0  0  0  0  0  0  0  0  0  0  0  0
    4.7534   -1.6917   -0.4939 C   0  0  0  0  0  0  0  0  0  0  0  0
    0.7009   -0.7868    0.3322 C   0  0  0  0  0  0  0  0  0  0  0  0
   -1.4550   -0.4572    0.6487 C   0  0  0  0  0  0  0  0  0  0  0  0
   -0.7698   -0.4833    1.8406 C   0  0  0  0  0  0  0  0  0  0  0  0
   -2.8504   -0.2730    0.3489 C   0  0  0  0  0  0  0  0  0  0  0  0
   -3.2341    0.3193   -0.8543 C   0  0  0  0  0  0  0  0  0  0  0  0
   -3.8197   -0.6878    1.2623 C   0  0  0  0  0  0  0  0  0  0  0  0
   -4.5870    0.4967   -1.1443 C   0  0  0  0  0  0  0  0  0  0  0  0
   -5.1725   -0.5102    0.9725 C   0  0  0  0  0  0  0  0  0  0  0  0
   -5.5563    0.0819   -0.2309 C   0  0  0  0  0  0  0  0  0  0  0  0
    4.3556    2.4173   -0.1220 H   0  0  0  0  0  0  0  0  0  0  0  0
    3.4820    3.2741    2.0737 H   0  0  0  0  0  0  0  0  0  0  0  0
    1.8301    2.5991    1.7109 H   0  0  0  0  0  0  0  0  0  0  0  0
    1.7121    3.9984   -0.3694 H   0  0  0  0  0  0  0  0  0  0  0  0
    3.3620    4.6782   -0.0054 H   0  0  0  0  0  0  0  0  0  0  0  0
    2.6746    1.4606   -1.7721 H   0  0  0  0  0  0  0  0  0  0  0  0
    1.4869    1.4888   -0.4961 H   0  0  0  0  0  0  0  0  0  0  0  0
    1.7577   -1.0457   -1.5170 H   0  0  0  0  0  0  0  0  0  0  0  0
    4.1033   -0.3185   -2.0076 H   0  0  0  0  0  0  0  0  0  0  0  0
    5.0547    0.4087   -0.6996 H   0  0  0  0  0  0  0  0  0  0  0  0
    2.7663   -2.4746    1.0178 H   0  0  0  0  0  0  0  0  0  0  0  0
    1.8431   -3.1876   -0.3051 H   0  0  0  0  0  0  0  0  0  0  0  0
    5.6559   -1.9569   -1.0539 H   0  0  0  0  0  0  0  0  0  0  0  0
    5.0043   -1.7226    0.5734 H   0  0  0  0  0  0  0  0  0  0  0  0
   -0.6457   -0.7019   -1.3082 H   0  0  0  0  0  0  0  0  0  0  0  0
   -1.1645   -0.3620    2.8395 H   0  0  0  0  0  0  0  0  0  0  0  0
   -2.5034    0.6630   -1.5821 H   0  0  0  0  0  0  0  0  0  0  0  0
   -3.5479   -1.1575    2.2045 H   0  0  0  0  0  0  0  0  0  0  0  0
   -5.9275   -0.8342    1.6829 H   0  0  0  0  0  0  0  0  0  0  0  0
   -6.6094    0.2200   -0.4569 H   0  0  0  0  0  0  0  0  0  0  0  0
  1 20  1  0  0  0  0
  2 12  1  0  0  0  0
  2 13  1  0  0  0  0
  3  9  1  0  0  0  0
  3 10  1  0  0  0  0
  3 11  1  0  0  0  0
  4 14  1  0  0  0  0
  4 15  1  0  0  0  0
  4 37  1  0  0  0  0
  5 14  2  0  0  0  0
  5 16  1  0  0  0  0
  6  7  1  0  0  0  0
  6  8  1  0  0  0  0
  6  9  1  0  0  0  0
  6 23  1  0  0  0  0
  7  8  1  0  0  0  0
  7 24  1  0  0  0  0
  7 25  1  0  0  0  0
  8 26  1  0  0  0  0
  8 27  1  0  0  0  0
  9 28  1  0  0  0  0
  9 29  1  0  0  0  0
 10 12  1  0  0  0  0
 10 14  1  0  0  0  0
 10 30  1  0  0  0  0
 11 13  1  0  0  0  0
 11 31  1  0  0  0  0
 11 32  1  0  0  0  0
 12 33  1  0  0  0  0
 12 34  1  0  0  0  0
 13 35  1  0  0  0  0
 13 36  1  0  0  0  0
 15 16  2  0  0  0  0
 15 17  1  0  0  0  0
 16 38  1  0  0  0  0
 17 18  2  0  0  0  0
 17 19  1  0  0  0  0
 18 20  1  0  0  0  0
 18 39  1  0  0  0  0
 19 21  2  0  0  0  0
 19 40  1  0  0  0  0
 20 22  2  0  0  0  0
 21 22  1  0  0  0  0
 21 41  1  0  0  0  0
 22 42  1  0  0  0  0
M  END
> <PUBCHEM_COMPOUND_CID>
71694218

> <PUBCHEM_CONFORMER_RMSD>
0.8

> <PUBCHEM_CONFORMER_DIVERSEORDER>
1
87
69
89
24
80
60
90
77
23
5
99
62
32
116
105
113
16
88
102
111
104
48
101
91
115
15
82
45
41
43
72
17
36
59
55
30
46
7
81
66
4
78
40
65
74
70
96
114
68
2
28
22
85
86
56
107
37
12
21
38
9
49
52
8
51
34
98
14
79
47
39
73
95
18
25
19
93
75
117
71
54
10
13
31
3
35
83
44
84
27
67
112
61
118
63
42
6
76
29
103
106
94
33
110
53
92
58
50
109
11
97
57
64
108
100
26
20

> <PUBCHEM_MMFF94_PARTIAL_CHARGES>
33
1 -0.19
10 0.45
11 0.27
12 0.28
13 0.28
14 0.01
15 -0.2
16 0.08
17 0.05
18 -0.15
19 -0.15
2 -0.56
20 0.19
21 -0.15
22 -0.15
23 0.1
24 0.1
25 0.1
26 0.1
27 0.1
3 -0.81
37 0.27
38 0.15
39 0.15
4 0.03
40 0.15
41 0.15
42 0.15
5 -0.57
6 -0.19
7 -0.2
8 -0.2
9 0.37

> <PUBCHEM_EFFECTIVE_ROTOR_COUNT>
5.8

> <PUBCHEM_PHARMACOPHORE_FEATURES>
7
1 2 acceptor
1 3 cation
1 4 donor
3 4 5 14 cation
5 4 5 14 15 16 rings
6 17 18 19 20 21 22 rings
6 2 3 10 11 12 13 rings

> <PUBCHEM_HEAVY_ATOM_COUNT>
22

> <PUBCHEM_ATOM_DEF_STEREO_COUNT>
1

> <PUBCHEM_ATOM_UDEF_STEREO_COUNT>
0

> <PUBCHEM_BOND_DEF_STEREO_COUNT>
0

> <PUBCHEM_BOND_UDEF_STEREO_COUNT>
0

> <PUBCHEM_ISOTOPIC_ATOM_COUNT>
0

> <PUBCHEM_COMPONENT_COUNT>
1

> <PUBCHEM_CACTVS_TAUTO_COUNT>
2

> <PUBCHEM_CONFORMER_ID>
0445F78A00000001

> <PUBCHEM_MMFF94_ENERGY>
45.8663

> <PUBCHEM_FEATURE_SELFOVERLAP>
35.523

> <PUBCHEM_SHAPE_FINGERPRINT>
10670039 82 16153708670063576391
11595378 159 14634858743813912181
12166972 35 17775005657172171226
12236239 1 17417818309340524891
12403259 415 17967819366187979213
12616971 3 17632303375981985859
12730499 353 18266191697496927442
12769317 202 18269271425482889896
13134695 92 18339931424609502804
13583140 156 18335993037888186735
14170010 4 18342176683240860640
14251757 17 18260825999434403333
17349148 13 17417819400304526590
17844677 252 18341621399777701833
1813 80 17774173275182780854
18186145 218 18040440971057239419
192875 21 18060147522372893488
200 152 18130792200613618547
20369508 70 18408887313425506586
20645477 56 18186806919723184243
20645477 70 18271818929394175950
21033648 144 18340487871418150013
21033648 29 17822008726987521245
21033650 10 15194192429034510346
21065201 7 17022907865085974019
21304303 282 16909718825759850796
2132832 1 17988649541025218256
221357 26 18335984168870034333
22224240 67 8069735244954112886
22289505 5 18261673680022949566
22393880 68 17968090915775084083
23557571 272 17603875524368276423
23559900 14 17822017514021038863
328310 1195 18335976515032584525
341906 21 16515676771604045229
44317340 157 18341610452095994405
474 4 18269840985438160312
495365 180 18339923835244256024
5281201 14 18410296882704727013
57124632 79 18268988872775284712
574716 61 17988352788897366685
5969126 39 17982740671702715390
7471813 234 17917996036252497224
9981440 41 17765990989212084624

> <PUBCHEM_SHAPE_MULTIPOLES>
424.66
11.84
3.01
1.47
11.39
2.53
-0.03
0.17
3.34
-6.44
-0.15
1.41
0.23
1.86

> <PUBCHEM_SHAPE_SELFOVERLAP>
912.107

> <PUBCHEM_SHAPE_VOLUME>
236.8

> <PUBCHEM_COORDINATE_TYPE>
2
5
10

$$$$
