40586240
  -OEChem-12032416283D

 57 60  0     1  0  0  0  0  0999 V2000
   -3.8391   -2.2278   -0.2455 S   0  0  0  0  0  0  0  0  0  0  0  0
    0.6750   -1.1845    0.7976 O   0  0  0  0  0  0  0  0  0  0  0  0
   -0.9870    1.3511    1.2582 O   0  0  0  0  0  0  0  0  0  0  0  0
    2.5075    0.8929    0.6163 O   0  0  0  0  0  0  0  0  0  0  0  0
   -4.1345   -2.8664    1.0229 O   0  0  0  0  0  0  0  0  0  0  0  0
   -4.1485   -2.9026   -1.4914 O   0  0  0  0  0  0  0  0  0  0  0  0
    3.1028    1.3277   -1.5588 O   0  0  0  0  0  0  0  0  0  0  0  0
   -2.2096   -1.7491   -0.2715 N   0  0  0  0  0  0  0  0  0  0  0  0
    4.6869    0.7264    0.0260 N   0  0  0  0  0  0  0  0  0  0  0  0
   -1.0536    0.3375    0.2334 C   0  0  1  0  0  0  0  0  0  0  0  0
    0.3726   -0.0773   -0.0676 C   0  0  1  0  0  0  0  0  0  0  0  0
   -1.6872   -0.9180    0.7857 C   0  0  2  0  0  0  0  0  0  0  0  0
    1.1575    1.1567    0.3078 C   0  0  1  0  0  0  0  0  0  0  0  0
   -0.5181   -1.5867    1.4880 C   0  0  0  0  0  0  0  0  0  0  0  0
    0.3901    1.6712    1.5048 C   0  0  0  0  0  0  0  0  0  0  0  0
    5.8568    0.7640   -0.8232 C   0  0  0  0  0  0  0  0  0  0  0  0
    7.0980    1.1910   -0.0322 C   0  0  0  0  0  0  0  0  0  0  0  0
    6.0773   -0.5841   -1.5175 C   0  0  0  0  0  0  0  0  0  0  0  0
    7.5803    0.1054    0.9300 C   0  0  0  0  0  0  0  0  0  0  0  0
    6.5612   -1.6667   -0.5528 C   0  0  0  0  0  0  0  0  0  0  0  0
    7.8032   -1.2232    0.2140 C   0  0  0  0  0  0  0  0  0  0  0  0
    3.4117    1.0113   -0.4146 C   0  0  0  0  0  0  0  0  0  0  0  0
   -4.6763   -0.6713   -0.2799 C   0  0  0  0  0  0  0  0  0  0  0  0
   -5.0164   -0.0895   -1.5013 C   0  0  0  0  0  0  0  0  0  0  0  0
   -4.9944   -0.0236    0.9139 C   0  0  0  0  0  0  0  0  0  0  0  0
   -5.6745    1.1399   -1.5288 C   0  0  0  0  0  0  0  0  0  0  0  0
   -5.6525    1.2059    0.8862 C   0  0  0  0  0  0  0  0  0  0  0  0
   -5.9928    1.7876   -0.3351 C   0  0  0  0  0  0  0  0  0  0  0  0
   -6.6965    3.1022   -0.3646 C   0  0  0  0  0  0  0  0  0  0  0  0
   -1.5716    0.7697   -0.6287 H   0  0  0  0  0  0  0  0  0  0  0  0
    0.5362   -0.4059   -1.0979 H   0  0  0  0  0  0  0  0  0  0  0  0
   -2.4470   -0.7027    1.5393 H   0  0  0  0  0  0  0  0  0  0  0  0
    1.0600    1.9070   -0.4892 H   0  0  0  0  0  0  0  0  0  0  0  0
   -0.4268   -1.2372    2.5223 H   0  0  0  0  0  0  0  0  0  0  0  0
   -0.5781   -2.6794    1.4982 H   0  0  0  0  0  0  0  0  0  0  0  0
    0.7035    1.1904    2.4382 H   0  0  0  0  0  0  0  0  0  0  0  0
    0.4981    2.7522    1.6353 H   0  0  0  0  0  0  0  0  0  0  0  0
   -1.6577   -1.8468   -1.1320 H   0  0  0  0  0  0  0  0  0  0  0  0
    5.6683    1.5181   -1.5976 H   0  0  0  0  0  0  0  0  0  0  0  0
    6.8936    2.1100    0.5301 H   0  0  0  0  0  0  0  0  0  0  0  0
    7.9073    1.4222   -0.7365 H   0  0  0  0  0  0  0  0  0  0  0  0
    6.8274   -0.4579   -2.3088 H   0  0  0  0  0  0  0  0  0  0  0  0
    5.1555   -0.9207   -2.0070 H   0  0  0  0  0  0  0  0  0  0  0  0
    6.8533   -0.0310    1.7391 H   0  0  0  0  0  0  0  0  0  0  0  0
    8.5161    0.4270    1.4015 H   0  0  0  0  0  0  0  0  0  0  0  0
    6.7831   -2.5829   -1.1120 H   0  0  0  0  0  0  0  0  0  0  0  0
    5.7620   -1.9145    0.1562 H   0  0  0  0  0  0  0  0  0  0  0  0
    8.6449   -1.1245   -0.4826 H   0  0  0  0  0  0  0  0  0  0  0  0
    8.0815   -1.9928    0.9427 H   0  0  0  0  0  0  0  0  0  0  0  0
    4.7925    0.4329    0.9923 H   0  0  0  0  0  0  0  0  0  0  0  0
   -4.7716   -0.5724   -2.4429 H   0  0  0  0  0  0  0  0  0  0  0  0
   -4.7480   -0.4599    1.8774 H   0  0  0  0  0  0  0  0  0  0  0  0
   -5.9341    1.5832   -2.4865 H   0  0  0  0  0  0  0  0  0  0  0  0
   -5.8979    1.6993    1.8229 H   0  0  0  0  0  0  0  0  0  0  0  0
   -7.7800    2.9485   -0.3508 H   0  0  0  0  0  0  0  0  0  0  0  0
   -6.4183    3.7188    0.4968 H   0  0  0  0  0  0  0  0  0  0  0  0
   -6.4339    3.6708   -1.2632 H   0  0  0  0  0  0  0  0  0  0  0  0
  1  5  2  0  0  0  0
  1  6  2  0  0  0  0
  1  8  1  0  0  0  0
  1 23  1  0  0  0  0
  2 11  1  0  0  0  0
  2 14  1  0  0  0  0
  3 10  1  0  0  0  0
  3 15  1  0  0  0  0
  4 13  1  0  0  0  0
  4 22  1  0  0  0  0
  7 22  2  0  0  0  0
  8 12  1  0  0  0  0
  8 38  1  0  0  0  0
  9 16  1  0  0  0  0
  9 22  1  0  0  0  0
  9 50  1  0  0  0  0
 10 11  1  0  0  0  0
 10 12  1  0  0  0  0
 10 30  1  0  0  0  0
 11 13  1  0  0  0  0
 11 31  1  0  0  0  0
 12 14  1  0  0  0  0
 12 32  1  0  0  0  0
 13 15  1  0  0  0  0
 13 33  1  0  0  0  0
 14 34  1  0  0  0  0
 14 35  1  0  0  0  0
 15 36  1  0  0  0  0
 15 37  1  0  0  0  0
 16 17  1  0  0  0  0
 16 18  1  0  0  0  0
 16 39  1  0  0  0  0
 17 19  1  0  0  0  0
 17 40  1  0  0  0  0
 17 41  1  0  0  0  0
 18 20  1  0  0  0  0
 18 42  1  0  0  0  0
 18 43  1  0  0  0  0
 19 21  1  0  0  0  0
 19 44  1  0  0  0  0
 19 45  1  0  0  0  0
 20 21  1  0  0  0  0
 20 46  1  0  0  0  0
 20 47  1  0  0  0  0
 21 48  1  0  0  0  0
 21 49  1  0  0  0  0
 23 24  2  0  0  0  0
 23 25  1  0  0  0  0
 24 26  1  0  0  0  0
 24 51  1  0  0  0  0
 25 27  2  0  0  0  0
 25 52  1  0  0  0  0
 26 28  2  0  0  0  0
 26 53  1  0  0  0  0
 27 28  1  0  0  0  0
 27 54  1  0  0  0  0
 28 29  1  0  0  0  0
 29 55  1  0  0  0  0
 29 56  1  0  0  0  0
 29 57  1  0  0  0  0
M  END
> <PUBCHEM_COMPOUND_CID>
40586240

> <PUBCHEM_CONFORMER_RMSD>
1

> <PUBCHEM_CONFORMER_DIVERSEORDER>
1
95
67
65
13
56
51
103
121
76
120
119
12
8
33
93
117
5
16
118
53
131
15
69
71
72
3
125
46
86
87
110
14
24
107
49
38
112
35
74
130
6
25
96
77
109
19
127
128
2
50
57
100
21
43
42
36
66
92
61
45
34
41
83
30
9
101
39
99
80
23
22
75
124
28
123
47
88
32
106
73
116
108
70
94
26
17
10
58
18
11
59
52
115
27
104
62
31
98
89
114
111
20
64
4
54
90
63
91
55
84
122
126
29
37
113
85
78
40
102
7
81
44
105
79
129
82
48
68
97
60

> <PUBCHEM_MMFF94_PARTIAL_CHARGES>
30
1 1.45
10 0.28
11 0.28
12 0.36
13 0.28
14 0.28
15 0.28
16 0.3
2 -0.56
22 0.78
23 -0.01
24 -0.15
25 -0.15
26 -0.15
27 -0.15
28 -0.14
29 0.14
3 -0.56
38 0.42
4 -0.43
5 -0.65
50 0.37
51 0.15
52 0.15
53 0.15
54 0.15
6 -0.65
7 -0.57
8 -0.91
9 -0.73

> <PUBCHEM_EFFECTIVE_ROTOR_COUNT>
9.4

> <PUBCHEM_PHARMACOPHORE_FEATURES>
11
1 2 acceptor
1 3 acceptor
1 5 acceptor
1 6 acceptor
1 7 acceptor
1 8 donor
1 9 donor
5 2 10 11 12 14 rings
5 3 10 11 13 15 rings
6 16 17 18 19 20 21 rings
6 23 24 25 26 27 28 rings

> <PUBCHEM_HEAVY_ATOM_COUNT>
29

> <PUBCHEM_ATOM_DEF_STEREO_COUNT>
4

> <PUBCHEM_ATOM_UDEF_STEREO_COUNT>
0

> <PUBCHEM_BOND_DEF_STEREO_COUNT>
0

> <PUBCHEM_BOND_UDEF_STEREO_COUNT>
0

> <PUBCHEM_ISOTOPIC_ATOM_COUNT>
0

> <PUBCHEM_COMPONENT_COUNT>
1

> <PUBCHEM_CACTVS_TAUTO_COUNT>
2

> <PUBCHEM_CONFORMER_ID>
026B4C0000000001

> <PUBCHEM_MMFF94_ENERGY>
49.5965

> <PUBCHEM_FEATURE_SELFOVERLAP>
56.558

> <PUBCHEM_SHAPE_FINGERPRINT>
10 15 8358262548662683581
10165383 225 18408603631479255381
10591671 39 7997969089879366488
10670039 82 18408877426738066469
10835480 77 18338514265923038812
11135926 11 18335697204956852023
11273773 118 16950555559087416447
11315181 36 16558750126932427609
11724838 91 12247672778367723954
11796584 16 18411138065367443914
12596602 18 10591774168579866686
13690498 29 18127968810069060815
13761468 95 17896590705513507893
13914758 101 18335421253560999352
14040221 275 17970941945732107283
14251752 14 18334858316175942772
14294032 229 17969784064661008012
1454969 45 9655574097714469880
14659021 117 10879986966000362397
14856354 85 16153717543935371715
15021287 119 17676212398217193141
15119646 104 17821999901299213938
15183329 4 17530674438158457150
15328829 1 18187086109666712608
15419008 91 18130210632578706936
15439362 3 18124598588028292271
15475509 8 17967536748945270444
16992727 255 18337955584708466205
17093844 174 18343017822130588649
19377110 9 12319457680162418268
21279426 13 18413672430562217656
21365058 27 14201403771990370488
21756936 100 18333169475686348379
21987440 362 17975136440220361229
23559900 14 18272365425338579192
3009799 131 17988923370875751712
4173938 77 15936701466256618556
444769 64 18186803564862920739
4760202 70 10087048870133699208
5047190 92 9293843569071853398
5085150 59 18201715137844756494
531348 171 18341612650734615455
550186 72 10807946946104174114
559249 180 18412265055526073163
59682541 35 8214134166779909389
59755656 215 18410293567148178150
59755656 520 15791735212814706057
6086070 43 17774993613904402171
6126387 218 18408036304816710936
6328613 192 18409728422392654545
7226269 152 18413673508810408489

> <PUBCHEM_SHAPE_MULTIPOLES>
555.48
22.54
2.66
1.42
27.34
0.81
0.15
-3.86
4.79
-4.39
0.1
-0.49
0.06
0.25

> <PUBCHEM_SHAPE_SELFOVERLAP>
1162.945

> <PUBCHEM_SHAPE_VOLUME>
315.4

> <PUBCHEM_COORDINATE_TYPE>
2
5
10

$$$$
