38030656
  -OEChem-12032416143D

 64 66  0     1  0  0  0  0  0999 V2000
   -1.4749    0.5494    0.9514 O   0  0  0  0  0  0  0  0  0  0  0  0
    4.8721   -4.2451    0.9966 O   0  0  0  0  0  0  0  0  0  0  0  0
    3.6579   -0.9782   -0.1899 N   0  0  0  0  0  0  0  0  0  0  0  0
   -1.7780    2.5943    1.8064 N   0  0  0  0  0  0  0  0  0  0  0  0
   -3.0203    2.0711    1.4997 N   0  0  0  0  0  0  0  0  0  0  0  0
    1.5476    0.8090   -1.3672 C   0  0  1  0  0  0  0  0  0  0  0  0
    3.0725    1.0808   -1.3946 C   0  0  1  0  0  0  0  0  0  0  0  0
    0.7867    2.0671   -0.9221 C   0  0  0  0  0  0  0  0  0  0  0  0
    1.2220    2.5475    0.4752 C   0  0  2  0  0  0  0  0  0  0  0  0
    1.0281    0.3440   -2.7312 C   0  0  0  0  0  0  0  0  0  0  0  0
    2.7305    2.5849    0.6130 C   0  0  0  0  0  0  0  0  0  0  0  0
    3.5417    1.9343   -0.2398 C   0  0  0  0  0  0  0  0  0  0  0  0
    3.8676   -0.2297   -1.4171 C   0  0  0  0  0  0  0  0  0  0  0  0
    0.5915    1.6877    1.5762 C   0  0  0  0  0  0  0  0  0  0  0  0
   -0.2540   -0.4654   -2.5647 C   0  0  0  0  0  0  0  0  0  0  0  0
    0.7973    1.5405   -3.6486 C   0  0  0  0  0  0  0  0  0  0  0  0
    3.2879    3.4255    1.7280 C   0  0  0  0  0  0  0  0  0  0  0  0
   -0.9066    1.6722    1.4701 C   0  0  0  0  0  0  0  0  0  0  0  0
    4.4025   -2.2317   -0.2061 C   0  0  0  0  0  0  0  0  0  0  0  0
    4.1420   -3.0272    1.0630 C   0  0  0  0  0  0  0  0  0  0  0  0
   -2.7950    0.8770    1.0035 C   0  0  0  0  0  0  0  0  0  0  0  0
   -3.7077   -0.1168    0.5176 C   0  0  0  0  0  0  0  0  0  0  0  0
    4.6869   -5.0285    2.1677 C   0  0  0  0  0  0  0  0  0  0  0  0
   -5.0804    0.1304    0.5324 C   0  0  0  0  0  0  0  0  0  0  0  0
   -3.2228   -1.3301    0.0292 C   0  0  0  0  0  0  0  0  0  0  0  0
   -5.9683   -0.8356    0.0592 C   0  0  0  0  0  0  0  0  0  0  0  0
   -4.1106   -2.2962   -0.4441 C   0  0  0  0  0  0  0  0  0  0  0  0
   -5.4833   -2.0490   -0.4291 C   0  0  0  0  0  0  0  0  0  0  0  0
   -6.4328   -3.0821   -0.9346 C   0  0  0  0  0  0  0  0  0  0  0  0
    1.3405    0.0183   -0.6353 H   0  0  0  0  0  0  0  0  0  0  0  0
    3.3303    1.6348   -2.3062 H   0  0  0  0  0  0  0  0  0  0  0  0
   -0.2965    1.9316   -0.9822 H   0  0  0  0  0  0  0  0  0  0  0  0
    1.0172    2.9032   -1.5967 H   0  0  0  0  0  0  0  0  0  0  0  0
    0.8453    3.5752    0.5815 H   0  0  0  0  0  0  0  0  0  0  0  0
    1.7555   -0.3162   -3.2141 H   0  0  0  0  0  0  0  0  0  0  0  0
    4.6189    2.0361   -0.1211 H   0  0  0  0  0  0  0  0  0  0  0  0
    4.9356    0.0000   -1.5334 H   0  0  0  0  0  0  0  0  0  0  0  0
    3.5861   -0.8352   -2.2847 H   0  0  0  0  0  0  0  0  0  0  0  0
    0.8467    2.0861    2.5656 H   0  0  0  0  0  0  0  0  0  0  0  0
    0.9731    0.6599    1.5498 H   0  0  0  0  0  0  0  0  0  0  0  0
   -0.6027   -0.8335   -3.5359 H   0  0  0  0  0  0  0  0  0  0  0  0
   -0.0870   -1.3378   -1.9238 H   0  0  0  0  0  0  0  0  0  0  0  0
   -1.0647    0.1262   -2.1286 H   0  0  0  0  0  0  0  0  0  0  0  0
    1.6693    2.1980   -3.7133 H   0  0  0  0  0  0  0  0  0  0  0  0
    0.6053    1.1806   -4.6671 H   0  0  0  0  0  0  0  0  0  0  0  0
   -0.0818    2.1322   -3.3726 H   0  0  0  0  0  0  0  0  0  0  0  0
    2.9959    3.0211    2.7016 H   0  0  0  0  0  0  0  0  0  0  0  0
    4.3820    3.4683    1.7045 H   0  0  0  0  0  0  0  0  0  0  0  0
    2.9173    4.4528    1.6510 H   0  0  0  0  0  0  0  0  0  0  0  0
    3.9420   -0.4292    0.6201 H   0  0  0  0  0  0  0  0  0  0  0  0
    4.1128   -2.8420   -1.0708 H   0  0  0  0  0  0  0  0  0  0  0  0
    5.4796   -2.0450   -0.3009 H   0  0  0  0  0  0  0  0  0  0  0  0
    4.4640   -2.4557    1.9423 H   0  0  0  0  0  0  0  0  0  0  0  0
    3.0721   -3.2491    1.1597 H   0  0  0  0  0  0  0  0  0  0  0  0
    3.6318   -5.2915    2.2908 H   0  0  0  0  0  0  0  0  0  0  0  0
    5.0472   -4.4909    3.0501 H   0  0  0  0  0  0  0  0  0  0  0  0
    5.2657   -5.9498    2.0606 H   0  0  0  0  0  0  0  0  0  0  0  0
   -5.4806    1.0692    0.9078 H   0  0  0  0  0  0  0  0  0  0  0  0
   -2.1606   -1.5592    0.0013 H   0  0  0  0  0  0  0  0  0  0  0  0
   -7.0356   -0.6308    0.0743 H   0  0  0  0  0  0  0  0  0  0  0  0
   -3.7208   -3.2370   -0.8239 H   0  0  0  0  0  0  0  0  0  0  0  0
   -6.6124   -2.9357   -2.0043 H   0  0  0  0  0  0  0  0  0  0  0  0
   -6.0375   -4.0918   -0.7800 H   0  0  0  0  0  0  0  0  0  0  0  0
   -7.3913   -3.0295   -0.4072 H   0  0  0  0  0  0  0  0  0  0  0  0
  1 18  1  0  0  0  0
  1 21  1  0  0  0  0
  2 20  1  0  0  0  0
  2 23  1  0  0  0  0
  3 13  1  0  0  0  0
  3 19  1  0  0  0  0
  3 50  1  0  0  0  0
  4  5  1  0  0  0  0
  4 18  2  0  0  0  0
  5 21  2  0  0  0  0
  6  7  1  0  0  0  0
  6  8  1  0  0  0  0
  6 10  1  0  0  0  0
  6 30  1  0  0  0  0
  7 12  1  0  0  0  0
  7 13  1  0  0  0  0
  7 31  1  0  0  0  0
  8  9  1  0  0  0  0
  8 32  1  0  0  0  0
  8 33  1  0  0  0  0
  9 11  1  0  0  0  0
  9 14  1  0  0  0  0
  9 34  1  0  0  0  0
 10 15  1  0  0  0  0
 10 16  1  0  0  0  0
 10 35  1  0  0  0  0
 11 12  2  0  0  0  0
 11 17  1  0  0  0  0
 12 36  1  0  0  0  0
 13 37  1  0  0  0  0
 13 38  1  0  0  0  0
 14 18  1  0  0  0  0
 14 39  1  0  0  0  0
 14 40  1  0  0  0  0
 15 41  1  0  0  0  0
 15 42  1  0  0  0  0
 15 43  1  0  0  0  0
 16 44  1  0  0  0  0
 16 45  1  0  0  0  0
 16 46  1  0  0  0  0
 17 47  1  0  0  0  0
 17 48  1  0  0  0  0
 17 49  1  0  0  0  0
 19 20  1  0  0  0  0
 19 51  1  0  0  0  0
 19 52  1  0  0  0  0
 20 53  1  0  0  0  0
 20 54  1  0  0  0  0
 21 22  1  0  0  0  0
 22 24  2  0  0  0  0
 22 25  1  0  0  0  0
 23 55  1  0  0  0  0
 23 56  1  0  0  0  0
 23 57  1  0  0  0  0
 24 26  1  0  0  0  0
 24 58  1  0  0  0  0
 25 27  2  0  0  0  0
 25 59  1  0  0  0  0
 26 28  2  0  0  0  0
 26 60  1  0  0  0  0
 27 28  1  0  0  0  0
 27 61  1  0  0  0  0
 28 29  1  0  0  0  0
 29 62  1  0  0  0  0
 29 63  1  0  0  0  0
 29 64  1  0  0  0  0
M  END
> <PUBCHEM_COMPOUND_CID>
38030656

> <PUBCHEM_CONFORMER_RMSD>
1

> <PUBCHEM_CONFORMER_DIVERSEORDER>
1
16
64
18
72
54
86
78
85
47
22
62
39
87
44
55
68
12
43
94
59
40
2
51
33
70
88
20
19
81
11
67
60
49
27
82
61
41
90
4
56
48
92
17
71
57
65
8
46
6
95
73
3
32
75
10
63
80
25
42
13
83
84
15
91
21
66
77
30
79
52
96
93
76
24
38
89
58
45
28
7
53
36
97
23
74
29
34
37
14
31
5
26
9
69
35
50

> <PUBCHEM_MMFF94_PARTIAL_CHARGES>
30
1 -0.28
11 -0.28
12 -0.29
13 0.27
14 0.18
17 0.14
18 0.3
19 0.27
2 -0.56
20 0.28
21 0.43
22 0.05
23 0.28
24 -0.15
25 -0.15
26 -0.15
27 -0.15
28 -0.14
29 0.14
3 -0.9
36 0.15
4 -0.34
5 -0.34
50 0.36
58 0.15
59 0.15
60 0.15
61 0.15
7 0.14
9 0.14

> <PUBCHEM_EFFECTIVE_ROTOR_COUNT>
9.8

> <PUBCHEM_PHARMACOPHORE_FEATURES>
7
1 2 acceptor
1 3 cation
1 3 donor
3 10 15 16 hydrophobe
5 1 4 5 18 21 rings
6 22 24 25 26 27 28 rings
6 6 7 8 9 11 12 rings

> <PUBCHEM_HEAVY_ATOM_COUNT>
29

> <PUBCHEM_ATOM_DEF_STEREO_COUNT>
3

> <PUBCHEM_ATOM_UDEF_STEREO_COUNT>
0

> <PUBCHEM_BOND_DEF_STEREO_COUNT>
0

> <PUBCHEM_BOND_UDEF_STEREO_COUNT>
0

> <PUBCHEM_ISOTOPIC_ATOM_COUNT>
0

> <PUBCHEM_COMPONENT_COUNT>
1

> <PUBCHEM_CACTVS_TAUTO_COUNT>
1

> <PUBCHEM_CONFORMER_ID>
02444D4000000001

> <PUBCHEM_MMFF94_ENERGY>
54.157

> <PUBCHEM_FEATURE_SELFOVERLAP>
35.52

> <PUBCHEM_SHAPE_FINGERPRINT>
10622 236 18336825277822078898
11963148 33 17839449326646804567
12422481 6 16487255456793033975
12633257 1 17843987882548331833
12977781 61 17974253631146320272
131258 38 18412539934145447006
13165053 137 14149847272675094307
13402501 40 17487912318041296757
13533116 47 18409731798179342487
14068700 675 18341328894623810162
14674994 50 17320980833201034046
15419009 47 17825940430402868597
16120349 67 9870594669648504098
17492 89 17845952765466102541
18681886 176 16630262388978596084
19315092 285 18411980260808473298
20626108 58 18130518460931192728
20775530 9 18262819362428331722
21197605 99 16555943236934088551
21315764 119 17968371343143778231
23559900 14 17416712183632165277
25222932 49 17698441362493402391
3004659 81 18059026080647677581
3680242 22 18129961043380691955
439807 62 18268998751627378647
46194498 28 15721680997644930968
484985 159 17324633389560020858
5104073 3 17489321818896758369
513532 50 16733543965312860596
59025328 239 17822295660809377028
66674814 147 17895481340861560906
6823239 73 16915132601186100876
9709674 26 17201669717036758581

> <PUBCHEM_SHAPE_MULTIPOLES>
570.12
12.92
5.17
2.64
15.7
6.63
-1.99
14.33
1.69
-8.29
3.94
-1.84
-0.85
-3.72

> <PUBCHEM_SHAPE_SELFOVERLAP>
1182.293

> <PUBCHEM_SHAPE_VOLUME>
326.8

> <PUBCHEM_COORDINATE_TYPE>
2
5
10

$$$$
