26742496
  -OEChem-12032416223D

 68 71  0     1  0  0  0  0  0999 V2000
   -5.9802    0.9557    1.6910 O   0  0  0  0  0  0  0  0  0  0  0  0
   -2.1971   -1.6297    2.0220 N   0  0  2  0  0  0  0  0  0  0  0  0
   -4.1501    1.0577    0.2629 N   0  0  0  0  0  0  0  0  0  0  0  0
    0.2281   -1.1878   -1.8179 N   0  0  0  0  0  0  0  0  0  0  0  0
    2.3363   -0.0618   -2.1264 N   0  0  0  0  0  0  0  0  0  0  0  0
   -6.2190    1.7935   -0.4596 N   0  0  0  0  0  0  0  0  0  0  0  0
    7.6441    1.5473    0.9365 N   0  0  0  0  0  0  0  0  0  0  0  0
   -1.7486   -2.6415   -0.3356 C   0  0  2  0  0  0  0  0  0  0  0  0
   -0.4175   -2.1824    0.3213 C   0  0  2  0  0  0  0  0  0  0  0  0
   -3.1088   -1.0132    1.0225 C   0  0  2  0  0  0  0  0  0  0  0  0
   -2.7209   -1.4451   -0.4080 C   0  0  0  0  0  0  0  0  0  0  0  0
   -2.3790   -3.6813    0.6155 C   0  0  0  0  0  0  0  0  0  0  0  0
   -0.7840   -1.4133    1.6227 C   0  0  0  0  0  0  0  0  0  0  0  0
   -2.4562   -3.0895    2.0337 C   0  0  0  0  0  0  0  0  0  0  0  0
   -3.1794    0.5092    1.1591 C   0  0  0  0  0  0  0  0  0  0  0  0
    0.5824   -1.4209   -0.5372 C   0  0  0  0  0  0  0  0  0  0  0  0
    1.7796   -1.0120    0.0139 C   0  0  0  0  0  0  0  0  0  0  0  0
    2.6261   -0.3297   -0.8362 C   0  0  0  0  0  0  0  0  0  0  0  0
    1.1388   -0.5131   -2.5454 C   0  0  0  0  0  0  0  0  0  0  0  0
   -5.4971    1.2436    0.5967 C   0  0  0  0  0  0  0  0  0  0  0  0
    3.9095    0.1507   -0.3827 C   0  0  0  0  0  0  0  0  0  0  0  0
    0.7837   -0.2378   -3.9674 C   0  0  0  0  0  0  0  0  0  0  0  0
   -7.6306    2.0851   -0.3746 C   0  0  0  0  0  0  0  0  0  0  0  0
    3.9809    1.0597    0.6728 C   0  0  0  0  0  0  0  0  0  0  0  0
    5.0785   -0.2947   -0.9999 C   0  0  0  0  0  0  0  0  0  0  0  0
   -8.2891    1.9153   -1.7376 C   0  0  0  0  0  0  0  0  0  0  0  0
   -7.8547    3.4880    0.1759 C   0  0  0  0  0  0  0  0  0  0  0  0
    5.2211    1.5236    1.1111 C   0  0  0  0  0  0  0  0  0  0  0  0
    6.3187    0.1692   -0.5617 C   0  0  0  0  0  0  0  0  0  0  0  0
    6.3901    1.0783    0.4937 C   0  0  0  0  0  0  0  0  0  0  0  0
    7.7295    2.4922    2.0322 C   0  0  0  0  0  0  0  0  0  0  0  0
    8.8650    1.0847    0.3066 C   0  0  0  0  0  0  0  0  0  0  0  0
   -1.5888   -3.0780   -1.3272 H   0  0  0  0  0  0  0  0  0  0  0  0
    0.1156   -3.1006    0.6133 H   0  0  0  0  0  0  0  0  0  0  0  0
   -4.1237   -1.3871    1.2243 H   0  0  0  0  0  0  0  0  0  0  0  0
   -2.2588   -0.6247   -0.9682 H   0  0  0  0  0  0  0  0  0  0  0  0
   -3.6241   -1.7384   -0.9575 H   0  0  0  0  0  0  0  0  0  0  0  0
   -1.7818   -4.6005    0.6278 H   0  0  0  0  0  0  0  0  0  0  0  0
   -3.3819   -3.9502    0.2620 H   0  0  0  0  0  0  0  0  0  0  0  0
   -0.1309   -1.7535    2.4375 H   0  0  0  0  0  0  0  0  0  0  0  0
   -0.5835   -0.3395    1.5325 H   0  0  0  0  0  0  0  0  0  0  0  0
   -3.4428   -3.2916    2.4686 H   0  0  0  0  0  0  0  0  0  0  0  0
   -1.7363   -3.5894    2.6942 H   0  0  0  0  0  0  0  0  0  0  0  0
   -2.2248    0.9880    0.9194 H   0  0  0  0  0  0  0  0  0  0  0  0
   -3.4450    0.7862    2.1858 H   0  0  0  0  0  0  0  0  0  0  0  0
   -3.8475    1.3215   -0.6698 H   0  0  0  0  0  0  0  0  0  0  0  0
    2.0399   -1.2249    1.0440 H   0  0  0  0  0  0  0  0  0  0  0  0
   -5.7148    2.0667   -1.2978 H   0  0  0  0  0  0  0  0  0  0  0  0
    1.1775   -1.0332   -4.6068 H   0  0  0  0  0  0  0  0  0  0  0  0
   -0.3022   -0.1899   -4.0959 H   0  0  0  0  0  0  0  0  0  0  0  0
    1.2062    0.7175   -4.2939 H   0  0  0  0  0  0  0  0  0  0  0  0
   -8.0856    1.3680    0.3193 H   0  0  0  0  0  0  0  0  0  0  0  0
    3.0809    1.4230    1.1638 H   0  0  0  0  0  0  0  0  0  0  0  0
    5.0425   -1.0062   -1.8218 H   0  0  0  0  0  0  0  0  0  0  0  0
   -7.8652    2.6073   -2.4740 H   0  0  0  0  0  0  0  0  0  0  0  0
   -8.1394    0.8985   -2.1169 H   0  0  0  0  0  0  0  0  0  0  0  0
   -9.3668    2.0993   -1.6777 H   0  0  0  0  0  0  0  0  0  0  0  0
   -7.4000    4.2457   -0.4721 H   0  0  0  0  0  0  0  0  0  0  0  0
   -7.4075    3.5950    1.1702 H   0  0  0  0  0  0  0  0  0  0  0  0
   -8.9237    3.7089    0.2615 H   0  0  0  0  0  0  0  0  0  0  0  0
    5.2236    2.2305    1.9347 H   0  0  0  0  0  0  0  0  0  0  0  0
    7.1985   -0.2076   -1.0739 H   0  0  0  0  0  0  0  0  0  0  0  0
    8.7681    2.7608    2.2553 H   0  0  0  0  0  0  0  0  0  0  0  0
    7.3127    2.0692    2.9530 H   0  0  0  0  0  0  0  0  0  0  0  0
    7.2119    3.4271    1.7901 H   0  0  0  0  0  0  0  0  0  0  0  0
    9.7525    1.5374    0.7627 H   0  0  0  0  0  0  0  0  0  0  0  0
    8.8894    1.3544   -0.7552 H   0  0  0  0  0  0  0  0  0  0  0  0
    8.9792    0.0002    0.4132 H   0  0  0  0  0  0  0  0  0  0  0  0
  1 20  2  0  0  0  0
  2 10  1  0  0  0  0
  2 13  1  0  0  0  0
  2 14  1  0  0  0  0
  3 15  1  0  0  0  0
  3 20  1  0  0  0  0
  3 46  1  0  0  0  0
  4 16  2  0  0  0  0
  4 19  1  0  0  0  0
  5 18  1  0  0  0  0
  5 19  2  0  0  0  0
  6 20  1  0  0  0  0
  6 23  1  0  0  0  0
  6 48  1  0  0  0  0
  7 30  1  0  0  0  0
  7 31  1  0  0  0  0
  7 32  1  0  0  0  0
  8  9  1  0  0  0  0
  8 11  1  0  0  0  0
  8 12  1  0  0  0  0
  8 33  1  0  0  0  0
  9 13  1  0  0  0  0
  9 16  1  0  0  0  0
  9 34  1  0  0  0  0
 10 11  1  0  0  0  0
 10 15  1  0  0  0  0
 10 35  1  0  0  0  0
 11 36  1  0  0  0  0
 11 37  1  0  0  0  0
 12 14  1  0  0  0  0
 12 38  1  0  0  0  0
 12 39  1  0  0  0  0
 13 40  1  0  0  0  0
 13 41  1  0  0  0  0
 14 42  1  0  0  0  0
 14 43  1  0  0  0  0
 15 44  1  0  0  0  0
 15 45  1  0  0  0  0
 16 17  1  0  0  0  0
 17 18  2  0  0  0  0
 17 47  1  0  0  0  0
 18 21  1  0  0  0  0
 19 22  1  0  0  0  0
 21 24  2  0  0  0  0
 21 25  1  0  0  0  0
 22 49  1  0  0  0  0
 22 50  1  0  0  0  0
 22 51  1  0  0  0  0
 23 26  1  0  0  0  0
 23 27  1  0  0  0  0
 23 52  1  0  0  0  0
 24 28  1  0  0  0  0
 24 53  1  0  0  0  0
 25 29  2  0  0  0  0
 25 54  1  0  0  0  0
 26 55  1  0  0  0  0
 26 56  1  0  0  0  0
 26 57  1  0  0  0  0
 27 58  1  0  0  0  0
 27 59  1  0  0  0  0
 27 60  1  0  0  0  0
 28 30  2  0  0  0  0
 28 61  1  0  0  0  0
 29 30  1  0  0  0  0
 29 62  1  0  0  0  0
 31 63  1  0  0  0  0
 31 64  1  0  0  0  0
 31 65  1  0  0  0  0
 32 66  1  0  0  0  0
 32 67  1  0  0  0  0
 32 68  1  0  0  0  0
M  END
> <PUBCHEM_COMPOUND_CID>
26742496

> <PUBCHEM_CONFORMER_RMSD>
1

> <PUBCHEM_CONFORMER_DIVERSEORDER>
1
23
114
56
108
137
47
102
28
96
90
70
38
55
40
66
45
122
32
41
65
69
35
48
95
97
75
43
128
112
22
91
139
155
46
80
5
72
31
74
94
76
146
81
58
50
113
103
64
7
111
140
136
121
145
123
79
135
85
30
99
141
60
104
24
68
53
4
27
118
154
10
152
147
2
82
129
86
39
34
116
13
148
126
71
105
16
110
89
18
100
124
127
9
93
54
44
132
67
87
3
20
49
88
57
61
92
12
117
101
33
15
107
142
130
151
143
120
62
59
78
84
21
131
63
83
98
153
109
11
17
19
156
6
73
125
144
29
51
52
26
25
138
133
150
14
36
77
42
115
106
119
8
37
149
134

> <PUBCHEM_MMFF94_PARTIAL_CHARGES>
33
1 -0.57
10 0.27
13 0.27
14 0.27
15 0.3
16 0.17
17 -0.15
18 0.31
19 0.48
2 -0.81
20 0.69
22 0.14
23 0.3
24 -0.15
25 -0.15
28 -0.15
29 -0.15
3 -0.73
30 0.1
31 0.37
32 0.37
4 -0.62
46 0.37
47 0.15
48 0.37
5 -0.62
53 0.15
54 0.15
6 -0.73
61 0.15
62 0.15
7 -0.84
9 0.14

> <PUBCHEM_EFFECTIVE_ROTOR_COUNT>
9.2

> <PUBCHEM_PHARMACOPHORE_FEATURES>
11
1 1 acceptor
1 2 cation
1 3 donor
1 4 acceptor
1 6 donor
1 7 cation
3 23 26 27 hydrophobe
3 4 5 19 cation
6 21 24 25 28 29 30 rings
6 4 5 16 17 18 19 rings
8 2 8 9 10 11 12 13 14 rings

> <PUBCHEM_HEAVY_ATOM_COUNT>
32

> <PUBCHEM_ATOM_DEF_STEREO_COUNT>
3

> <PUBCHEM_ATOM_UDEF_STEREO_COUNT>
0

> <PUBCHEM_BOND_DEF_STEREO_COUNT>
0

> <PUBCHEM_BOND_UDEF_STEREO_COUNT>
0

> <PUBCHEM_ISOTOPIC_ATOM_COUNT>
0

> <PUBCHEM_COMPONENT_COUNT>
1

> <PUBCHEM_CACTVS_TAUTO_COUNT>
3

> <PUBCHEM_CONFORMER_ID>
01980EE000000001

> <PUBCHEM_MMFF94_ENERGY>
96.5524

> <PUBCHEM_FEATURE_SELFOVERLAP>
55.868

> <PUBCHEM_SHAPE_FINGERPRINT>
10554248 39 15913065205282135388
11374522 101 18261678185977256980
12633257 1 15792027708920318275
12838862 33 18114452393242930621
13103583 49 16226055538717686074
13150687 139 18270123405613891279
13540713 5 16734694075871548159
13583140 156 17988087815370012886
13631057 29 11887957631285658799
13911987 19 15985111829287832162
14767858 380 14836405821943763447
14950920 106 15503241010292198705
15238133 3 17895209808358931303
15350500 185 18335695027825209941
15669420 48 17275382123724713853
15684973 49 18043263528886090090
17492 54 16056878014047534911
18643901 69 9367353643195421523
19246450 95 15936400110240465845
20567600 254 18334296431938711921
21033648 29 18187368713797581351
21304303 282 18337106861059584879
21344244 181 10807922778423010684
21403212 168 16950561065473002663
21585481 151 8862650327516312997
21585482 111 18128532855687945072
22149856 69 12251902581929364094
23522609 53 15937563478883311078
2838139 119 17988365875356625609
312425 54 18113894996998481018
393628 179 18409440367774959973
4366758 6 18187079530092890319
4938544 92 18338517555566904474
504843 32 16845014640628833734
5104073 3 17024318628941102268
5372103 7 17988641865998176985
54039377 194 13117994484277923344
6009941 240 18409167749267720738
6058803 2 16301792193062113295
636775 8 9439405748561038168
6691757 9 17676761059136219023
6697151 62 17485673471812859470
999808 66 12179839515528146369

> <PUBCHEM_SHAPE_MULTIPOLES>
622.79
23.63
3.45
2.46
3.93
0.9
2.04
-30.98
-5.1
-6.25
-1.49
0.46
0.34
3.63

> <PUBCHEM_SHAPE_SELFOVERLAP>
1318.266

> <PUBCHEM_SHAPE_VOLUME>
345.5

> <PUBCHEM_COORDINATE_TYPE>
2
5
10

$$$$
