56775731
  -OEChem-12032416323D

 51 54  0     0  0  0  0  0  0999 V2000
    1.6263   -3.5875    0.5238 O   0  0  0  0  0  0  0  0  0  0  0  0
   -1.7303    1.3855   -0.5286 O   0  0  0  0  0  0  0  0  0  0  0  0
   -7.0372   -1.1941    0.5734 O   0  0  0  0  0  0  0  0  0  0  0  0
    2.1308   -0.5192    0.3846 N   0  0  0  0  0  0  0  0  0  0  0  0
   -0.4651    0.9648   -0.9202 N   0  0  0  0  0  0  0  0  0  0  0  0
    1.4249   -1.6207   -0.2807 C   0  0  0  0  0  0  0  0  0  0  0  0
    4.1459    0.8631    0.1359 C   0  0  0  0  0  0  0  0  0  0  0  0
    2.9949    0.1525   -0.5736 C   0  0  0  0  0  0  0  0  0  0  0  0
    5.0123   -0.1433    0.9052 C   0  0  0  0  0  0  0  0  0  0  0  0
    4.9925    1.6584   -0.8670 C   0  0  0  0  0  0  0  0  0  0  0  0
    0.7385   -2.4753    0.7787 C   0  0  0  0  0  0  0  0  0  0  0  0
    2.3806   -2.7997   -0.4253 C   0  0  0  0  0  0  0  0  0  0  0  0
    0.6391   -1.1734   -1.4751 C   0  0  0  0  0  0  0  0  0  0  0  0
    6.2014    0.5366    1.5801 C   0  0  0  0  0  0  0  0  0  0  0  0
    6.1817    2.3351   -0.1893 C   0  0  0  0  0  0  0  0  0  0  0  0
    7.0355    1.3331    0.5816 C   0  0  0  0  0  0  0  0  0  0  0  0
   -0.5671   -0.3607   -1.0523 C   0  0  0  0  0  0  0  0  0  0  0  0
   -1.8600   -0.8283   -0.7601 C   0  0  0  0  0  0  0  0  0  0  0  0
   -2.5520    0.3087   -0.4367 C   0  0  0  0  0  0  0  0  0  0  0  0
   -3.9020    0.5882   -0.0415 C   0  0  0  0  0  0  0  0  0  0  0  0
   -4.8241   -0.4518    0.0766 C   0  0  0  0  0  0  0  0  0  0  0  0
   -4.2934    1.9007    0.2227 C   0  0  0  0  0  0  0  0  0  0  0  0
   -6.1375   -0.1793    0.4592 C   0  0  0  0  0  0  0  0  0  0  0  0
   -5.6068    2.1733    0.6050 C   0  0  0  0  0  0  0  0  0  0  0  0
   -6.5289    1.1332    0.7235 C   0  0  0  0  0  0  0  0  0  0  0  0
    3.7245    1.5767    0.8584 H   0  0  0  0  0  0  0  0  0  0  0  0
    3.4265   -0.5407   -1.3076 H   0  0  0  0  0  0  0  0  0  0  0  0
    2.4212    0.8992   -1.1357 H   0  0  0  0  0  0  0  0  0  0  0  0
    4.4255   -0.6551    1.6766 H   0  0  0  0  0  0  0  0  0  0  0  0
    5.3836   -0.9172    0.2211 H   0  0  0  0  0  0  0  0  0  0  0  0
    5.3606    0.9917   -1.6574 H   0  0  0  0  0  0  0  0  0  0  0  0
    4.3752    2.4208   -1.3569 H   0  0  0  0  0  0  0  0  0  0  0  0
    1.5297    0.1626    0.8458 H   0  0  0  0  0  0  0  0  0  0  0  0
    0.8118   -2.1446    1.8207 H   0  0  0  0  0  0  0  0  0  0  0  0
   -0.2948   -2.7731    0.5809 H   0  0  0  0  0  0  0  0  0  0  0  0
    2.3905   -3.2809   -1.4090 H   0  0  0  0  0  0  0  0  0  0  0  0
    3.4146   -2.6760   -0.0868 H   0  0  0  0  0  0  0  0  0  0  0  0
    0.2578   -2.0527   -2.0138 H   0  0  0  0  0  0  0  0  0  0  0  0
    1.2240   -0.6279   -2.2236 H   0  0  0  0  0  0  0  0  0  0  0  0
    6.8304   -0.2180    2.0657 H   0  0  0  0  0  0  0  0  0  0  0  0
    5.8388    1.2064    2.3696 H   0  0  0  0  0  0  0  0  0  0  0  0
    5.8179    3.1094    0.4974 H   0  0  0  0  0  0  0  0  0  0  0  0
    6.7965    2.8402   -0.9428 H   0  0  0  0  0  0  0  0  0  0  0  0
    7.8379    1.8609    1.1091 H   0  0  0  0  0  0  0  0  0  0  0  0
    7.5157    0.6441   -0.1241 H   0  0  0  0  0  0  0  0  0  0  0  0
   -2.2264   -1.8441   -0.7874 H   0  0  0  0  0  0  0  0  0  0  0  0
   -4.5429   -1.4828   -0.1245 H   0  0  0  0  0  0  0  0  0  0  0  0
   -3.6047    2.7379    0.1416 H   0  0  0  0  0  0  0  0  0  0  0  0
   -5.9121    3.1952    0.8108 H   0  0  0  0  0  0  0  0  0  0  0  0
   -7.5491    1.3589    1.0222 H   0  0  0  0  0  0  0  0  0  0  0  0
   -7.8949   -0.8254    0.8464 H   0  0  0  0  0  0  0  0  0  0  0  0
  1 11  1  0  0  0  0
  1 12  1  0  0  0  0
  2  5  1  0  0  0  0
  2 19  1  0  0  0  0
  3 23  1  0  0  0  0
  3 51  1  0  0  0  0
  4  6  1  0  0  0  0
  4  8  1  0  0  0  0
  4 33  1  0  0  0  0
  5 17  2  0  0  0  0
  6 11  1  0  0  0  0
  6 12  1  0  0  0  0
  6 13  1  0  0  0  0
  7  8  1  0  0  0  0
  7  9  1  0  0  0  0
  7 10  1  0  0  0  0
  7 26  1  0  0  0  0
  8 27  1  0  0  0  0
  8 28  1  0  0  0  0
  9 14  1  0  0  0  0
  9 29  1  0  0  0  0
  9 30  1  0  0  0  0
 10 15  1  0  0  0  0
 10 31  1  0  0  0  0
 10 32  1  0  0  0  0
 11 34  1  0  0  0  0
 11 35  1  0  0  0  0
 12 36  1  0  0  0  0
 12 37  1  0  0  0  0
 13 17  1  0  0  0  0
 13 38  1  0  0  0  0
 13 39  1  0  0  0  0
 14 16  1  0  0  0  0
 14 40  1  0  0  0  0
 14 41  1  0  0  0  0
 15 16  1  0  0  0  0
 15 42  1  0  0  0  0
 15 43  1  0  0  0  0
 16 44  1  0  0  0  0
 16 45  1  0  0  0  0
 17 18  1  0  0  0  0
 18 19  2  0  0  0  0
 18 46  1  0  0  0  0
 19 20  1  0  0  0  0
 20 21  2  0  0  0  0
 20 22  1  0  0  0  0
 21 23  1  0  0  0  0
 21 47  1  0  0  0  0
 22 24  2  0  0  0  0
 22 48  1  0  0  0  0
 23 25  2  0  0  0  0
 24 25  1  0  0  0  0
 24 49  1  0  0  0  0
 25 50  1  0  0  0  0
M  END
> <PUBCHEM_COMPOUND_CID>
56775731

> <PUBCHEM_CONFORMER_RMSD>
1

> <PUBCHEM_CONFORMER_DIVERSEORDER>
2
113
67
55
91
41
65
69
94
6
51
103
60
18
109
110
105
57
93
29
17
82
87
97
56
72
89
88
46
19
48
80
68
106
38
64
59
24
45
25
111
104
3
8
98
22
96
75
76
102
21
71
84
83
26
7
33
108
12
95
92
62
27
9
100
39
28
58
81
114
112
115
61
10
4
70
52
44
13
74
15
77
32
54
63
116
31
30
37
1
34
47
86
20
78
53
101
107
79
11
16
43
36
73
5
42
35
23
14
50
85
49
90
40
66
99

> <PUBCHEM_MMFF94_PARTIAL_CHARGES>
26
1 -0.52
11 0.26
12 0.26
13 0.18
17 0.11
18 -0.15
19 0.09
2 -0.02
20 0.05
21 -0.15
22 -0.15
23 0.08
24 -0.15
25 -0.15
3 -0.53
33 0.36
4 -0.84
46 0.15
47 0.15
48 0.15
49 0.15
5 -0.41
50 0.15
51 0.45
6 0.21
8 0.27

> <PUBCHEM_EFFECTIVE_ROTOR_COUNT>
8

> <PUBCHEM_PHARMACOPHORE_FEATURES>
9
1 1 acceptor
1 3 donor
1 4 cation
1 4 donor
1 5 acceptor
4 1 6 11 12 rings
5 2 5 17 18 19 rings
6 20 21 22 23 24 25 rings
6 7 9 10 14 15 16 rings

> <PUBCHEM_HEAVY_ATOM_COUNT>
25

> <PUBCHEM_ATOM_DEF_STEREO_COUNT>
0

> <PUBCHEM_ATOM_UDEF_STEREO_COUNT>
0

> <PUBCHEM_BOND_DEF_STEREO_COUNT>
0

> <PUBCHEM_BOND_UDEF_STEREO_COUNT>
0

> <PUBCHEM_ISOTOPIC_ATOM_COUNT>
0

> <PUBCHEM_COMPONENT_COUNT>
1

> <PUBCHEM_CACTVS_TAUTO_COUNT>
3

> <PUBCHEM_CONFORMER_ID>
0362543300000002

> <PUBCHEM_MMFF94_ENERGY>
46.7139

> <PUBCHEM_FEATURE_SELFOVERLAP>
45.672

> <PUBCHEM_SHAPE_FINGERPRINT>
10 15 18408605889434450633
10493431 412 18410292531702493687
10613725 11 11455893567894178961
10670039 82 15051741850239634987
10693767 8 9439404610284174860
10721379 63 16629420047180904694
10835480 77 18262513694502385573
11823591 26 18342165687908194606
12166972 35 10809349935788480215
12516196 113 8790887385113130876
12596602 18 18201163161632418715
12895836 83 17060331950691810678
12895837 130 17630598141012021836
13073987 5 18337679607953545401
13631057 29 18199460147081373559
14251752 14 11311786063356404265
14341114 328 18335416876488132250
14461889 52 18335989735327193099
14565420 104 18408038511928884226
14849402 71 18265336281778179036
15183329 4 10303819778246724157
15347590 135 18338812177844437891
15728490 51 18271242841943249247
16126227 98 18267584792189747304
16992610 120 18262253226553488156
17980427 23 17749955590756583374
18222031 100 7853575734204773454
19377110 9 18410565189501917391
2026 5 13190340180311854897
21424621 283 18201432623654252256
21756936 100 18130779105337402662
21781055 127 18273222981017521296
22079108 93 18408885161388175254
221357 26 11167942446068274130
22224240 67 18335136526798199410
23559900 14 17626115144400650271
249999 5 18339923706580476854
2838139 119 17845924208740526644
3411729 13 18341896251529973646
4073 2 18334866004747820675
4093350 32 17489307448189717958
4339292 15 11242511321677707976
4340502 62 18335422348329539682
5104073 3 18264778662563844603
5385378 56 18411413978635851962
54076057 127 17846510209377568951
5758199 1 18412265055583738208
59682541 35 18338800125928879867
59682541 52 16056610824691369892
59755656 520 18342731949266038502
6443934 186 18259701194411457674
86090 222 14346351230914176568
960060 61 11600001072663711464
9689198 14 16271934830571698233

> <PUBCHEM_SHAPE_MULTIPOLES>
486.92
18.9
2.82
1.11
4.26
1.72
0
-12.38
6.65
-1.68
0.25
-0.78
0.07
-0.43

> <PUBCHEM_SHAPE_SELFOVERLAP>
1040.459

> <PUBCHEM_SHAPE_VOLUME>
271.1

> <PUBCHEM_COORDINATE_TYPE>
2
5
10

$$$$
