28963061
  -OEChem-12032416293D

 70 72  0     1  0  0  0  0  0999 V2000
    1.3241   -2.0214    0.1692 O   0  0  0  0  0  0  0  0  0  0  0  0
    5.7823    0.6442    1.1780 O   0  0  0  0  0  0  0  0  0  0  0  0
   -4.6325    0.4990   -2.1336 O   0  0  0  0  0  0  0  0  0  0  0  0
   -3.6632    0.0792   -0.0697 N   0  0  0  0  0  0  0  0  0  0  0  0
    5.7378   -0.9477   -0.5083 N   0  0  0  0  0  0  0  0  0  0  0  0
   -6.0632   -0.6140    0.8823 N   0  0  0  0  0  0  0  0  0  0  0  0
    0.3236    1.6604    0.3086 C   0  0  1  0  0  0  0  0  0  0  0  0
    0.1923    0.1317    0.0003 C   0  0  2  0  0  0  0  0  0  0  0  0
   -1.2540   -0.3835    0.3329 C   0  0  1  0  0  0  0  0  0  0  0  0
    1.3546   -0.6756    0.6469 C   0  0  2  0  0  0  0  0  0  0  0  0
    1.7195    2.1582   -0.1349 C   0  0  0  0  0  0  0  0  0  0  0  0
    2.7467   -0.1089    0.2830 C   0  0  1  0  0  0  0  0  0  0  0  0
   -0.7344    2.4330   -0.5126 C   0  0  0  0  0  0  0  0  0  0  0  0
   -2.3138    0.4501   -0.4410 C   0  0  2  0  0  0  0  0  0  0  0  0
    2.8601    1.3959    0.5264 C   0  0  0  0  0  0  0  0  0  0  0  0
   -2.1568    1.9586   -0.2516 C   0  0  0  0  0  0  0  0  0  0  0  0
    0.1356    1.9812    1.8131 C   0  0  0  0  0  0  0  0  0  0  0  0
    3.8704   -0.8352    1.0325 C   0  0  2  0  0  0  0  0  0  0  0  0
   -1.4619   -1.8761    0.0257 C   0  0  0  0  0  0  0  0  0  0  0  0
    3.6716   -0.6975    2.5379 C   0  0  0  0  0  0  0  0  0  0  0  0
    5.2253   -0.2853    0.5978 C   0  0  0  0  0  0  0  0  0  0  0  0
   -4.7192    0.1376   -0.9630 C   0  0  0  0  0  0  0  0  0  0  0  0
    7.0076   -0.6048   -1.1054 C   0  0  0  0  0  0  0  0  0  0  0  0
   -6.0463   -0.2510   -0.4198 C   0  0  0  0  0  0  0  0  0  0  0  0
    7.2703   -1.5267   -2.3017 C   0  0  0  0  0  0  0  0  0  0  0  0
    6.9633    0.8534   -1.5740 C   0  0  0  0  0  0  0  0  0  0  0  0
    8.1206   -0.7823   -0.0661 C   0  0  0  0  0  0  0  0  0  0  0  0
   -7.1678   -0.2267   -1.2331 C   0  0  0  0  0  0  0  0  0  0  0  0
   -8.3852   -0.5986   -0.6738 C   0  0  0  0  0  0  0  0  0  0  0  0
   -7.2644   -0.9691    1.3910 C   0  0  0  0  0  0  0  0  0  0  0  0
   -8.4430   -0.9781    0.6627 C   0  0  0  0  0  0  0  0  0  0  0  0
    0.3043    0.0048   -1.0885 H   0  0  0  0  0  0  0  0  0  0  0  0
   -1.4337   -0.2656    1.4090 H   0  0  0  0  0  0  0  0  0  0  0  0
    1.1816   -0.7087    1.7242 H   0  0  0  0  0  0  0  0  0  0  0  0
    1.8286    3.2284    0.0835 H   0  0  0  0  0  0  0  0  0  0  0  0
    1.8181    2.0574   -1.2243 H   0  0  0  0  0  0  0  0  0  0  0  0
    2.9071   -0.2790   -0.7922 H   0  0  0  0  0  0  0  0  0  0  0  0
   -0.5234    2.3205   -1.5846 H   0  0  0  0  0  0  0  0  0  0  0  0
   -0.6708    3.5076   -0.2992 H   0  0  0  0  0  0  0  0  0  0  0  0
   -2.1931    0.2355   -1.5119 H   0  0  0  0  0  0  0  0  0  0  0  0
    3.7892    1.7875    0.0968 H   0  0  0  0  0  0  0  0  0  0  0  0
    2.8790    1.6583    1.5859 H   0  0  0  0  0  0  0  0  0  0  0  0
   -2.4709    2.2476    0.7588 H   0  0  0  0  0  0  0  0  0  0  0  0
   -2.8364    2.4910   -0.9297 H   0  0  0  0  0  0  0  0  0  0  0  0
   -0.8617    1.7259    2.1803 H   0  0  0  0  0  0  0  0  0  0  0  0
    0.2790    3.0521    1.9992 H   0  0  0  0  0  0  0  0  0  0  0  0
    0.8458    1.4439    2.4476 H   0  0  0  0  0  0  0  0  0  0  0  0
    3.8467   -1.9062    0.7928 H   0  0  0  0  0  0  0  0  0  0  0  0
   -1.1439   -2.1203   -0.9931 H   0  0  0  0  0  0  0  0  0  0  0  0
   -2.5113   -2.1721    0.1249 H   0  0  0  0  0  0  0  0  0  0  0  0
   -0.9142   -2.5048    0.7334 H   0  0  0  0  0  0  0  0  0  0  0  0
   -3.8445   -0.1774    0.8968 H   0  0  0  0  0  0  0  0  0  0  0  0
    1.4258   -2.0011   -0.7976 H   0  0  0  0  0  0  0  0  0  0  0  0
    3.6486    0.3321    2.9009 H   0  0  0  0  0  0  0  0  0  0  0  0
    4.5204   -1.1671    3.0523 H   0  0  0  0  0  0  0  0  0  0  0  0
    2.7835   -1.2216    2.8992 H   0  0  0  0  0  0  0  0  0  0  0  0
    5.1940   -1.6967   -0.9278 H   0  0  0  0  0  0  0  0  0  0  0  0
    8.2274   -1.2959   -2.7824 H   0  0  0  0  0  0  0  0  0  0  0  0
    7.2938   -2.5783   -1.9928 H   0  0  0  0  0  0  0  0  0  0  0  0
    6.4822   -1.4276   -3.0573 H   0  0  0  0  0  0  0  0  0  0  0  0
    6.8907    1.5702   -0.7508 H   0  0  0  0  0  0  0  0  0  0  0  0
    6.1078    1.0286   -2.2372 H   0  0  0  0  0  0  0  0  0  0  0  0
    7.8716    1.1086   -2.1325 H   0  0  0  0  0  0  0  0  0  0  0  0
    8.1045   -1.7924    0.3602 H   0  0  0  0  0  0  0  0  0  0  0  0
    9.1057   -0.6325   -0.5235 H   0  0  0  0  0  0  0  0  0  0  0  0
    8.0508   -0.0754    0.7658 H   0  0  0  0  0  0  0  0  0  0  0  0
   -7.1237    0.0692   -2.2757 H   0  0  0  0  0  0  0  0  0  0  0  0
   -9.2874   -0.5928   -1.2780 H   0  0  0  0  0  0  0  0  0  0  0  0
   -7.2557   -1.2567    2.4372 H   0  0  0  0  0  0  0  0  0  0  0  0
   -9.3810   -1.2718    1.1197 H   0  0  0  0  0  0  0  0  0  0  0  0
  1 10  1  0  0  0  0
  1 53  1  0  0  0  0
  2 21  2  0  0  0  0
  3 22  2  0  0  0  0
  4 14  1  0  0  0  0
  4 22  1  0  0  0  0
  4 52  1  0  0  0  0
  5 21  1  0  0  0  0
  5 23  1  0  0  0  0
  5 57  1  0  0  0  0
  6 24  1  0  0  0  0
  6 30  2  0  0  0  0
  7  8  1  0  0  0  0
  7 11  1  0  0  0  0
  7 13  1  0  0  0  0
  7 17  1  0  0  0  0
  8  9  1  0  0  0  0
  8 10  1  0  0  0  0
  8 32  1  0  0  0  0
  9 14  1  0  0  0  0
  9 19  1  0  0  0  0
  9 33  1  0  0  0  0
 10 12  1  0  0  0  0
 10 34  1  0  0  0  0
 11 15  1  0  0  0  0
 11 35  1  0  0  0  0
 11 36  1  0  0  0  0
 12 15  1  0  0  0  0
 12 18  1  0  0  0  0
 12 37  1  0  0  0  0
 13 16  1  0  0  0  0
 13 38  1  0  0  0  0
 13 39  1  0  0  0  0
 14 16  1  0  0  0  0
 14 40  1  0  0  0  0
 15 41  1  0  0  0  0
 15 42  1  0  0  0  0
 16 43  1  0  0  0  0
 16 44  1  0  0  0  0
 17 45  1  0  0  0  0
 17 46  1  0  0  0  0
 17 47  1  0  0  0  0
 18 20  1  0  0  0  0
 18 21  1  0  0  0  0
 18 48  1  0  0  0  0
 19 49  1  0  0  0  0
 19 50  1  0  0  0  0
 19 51  1  0  0  0  0
 20 54  1  0  0  0  0
 20 55  1  0  0  0  0
 20 56  1  0  0  0  0
 22 24  1  0  0  0  0
 23 25  1  0  0  0  0
 23 26  1  0  0  0  0
 23 27  1  0  0  0  0
 24 28  2  0  0  0  0
 25 58  1  0  0  0  0
 25 59  1  0  0  0  0
 25 60  1  0  0  0  0
 26 61  1  0  0  0  0
 26 62  1  0  0  0  0
 26 63  1  0  0  0  0
 27 64  1  0  0  0  0
 27 65  1  0  0  0  0
 27 66  1  0  0  0  0
 28 29  1  0  0  0  0
 28 67  1  0  0  0  0
 29 31  2  0  0  0  0
 29 68  1  0  0  0  0
 30 31  1  0  0  0  0
 30 69  1  0  0  0  0
 31 70  1  0  0  0  0
M  END
> <PUBCHEM_COMPOUND_CID>
28963061

> <PUBCHEM_CONFORMER_RMSD>
1

> <PUBCHEM_CONFORMER_DIVERSEORDER>
1
34
42
19
39
25
35
9
3
24
43
23
41
26
44
6
20
17
31
22
30
18
12
38
40
7
37
8
46
13
21
36
16
5
33
15
28
32
27
10
45
14
4
2
11
29

> <PUBCHEM_MMFF94_PARTIAL_CHARGES>
24
1 -0.68
10 0.28
14 0.3
18 0.06
2 -0.57
21 0.57
22 0.54
23 0.3
24 0.4
28 -0.15
29 -0.15
3 -0.57
30 0.16
31 -0.15
4 -0.73
5 -0.73
52 0.37
53 0.4
57 0.37
6 -0.62
67 0.15
68 0.15
69 0.15
70 0.15

> <PUBCHEM_EFFECTIVE_ROTOR_COUNT>
8.6

> <PUBCHEM_PHARMACOPHORE_FEATURES>
12
1 1 acceptor
1 1 donor
1 2 acceptor
1 20 hydrophobe
1 3 acceptor
1 4 donor
1 5 donor
1 6 acceptor
4 23 25 26 27 hydrophobe
6 6 24 28 29 30 31 rings
6 7 8 10 11 12 15 rings
6 7 8 9 13 14 16 rings

> <PUBCHEM_HEAVY_ATOM_COUNT>
31

> <PUBCHEM_ATOM_DEF_STEREO_COUNT>
7

> <PUBCHEM_ATOM_UDEF_STEREO_COUNT>
0

> <PUBCHEM_BOND_DEF_STEREO_COUNT>
0

> <PUBCHEM_BOND_UDEF_STEREO_COUNT>
0

> <PUBCHEM_ISOTOPIC_ATOM_COUNT>
0

> <PUBCHEM_COMPONENT_COUNT>
1

> <PUBCHEM_CACTVS_TAUTO_COUNT>
4

> <PUBCHEM_CONFORMER_ID>
01B9F0F500000001

> <PUBCHEM_MMFF94_ENERGY>
93.7873

> <PUBCHEM_FEATURE_SELFOVERLAP>
60.911

> <PUBCHEM_SHAPE_FINGERPRINT>
10076449 9 18410859862469659685
10299344 5 16559030493216745199
10591671 39 18113902637053982990
11315181 36 16587742028675642319
11331351 85 17418093217492134153
11646440 116 18273208712302474017
11963148 33 18261663840143397475
12166972 35 17703789232247394712
12373685 5 13984659282843622744
12522641 24 16486968519018946954
12592606 108 18130504223763238767
13150687 139 13262396627424196248
13165053 68 15793727631253828619
13383668 254 14201410331376148437
13617811 41 18408606951198571924
13673619 4 18273210889445289072
13685833 64 18272651250900492461
13782708 43 16988836164678941758
13914758 101 15051740784914015771
14347424 109 14764339453783691258
14849402 71 17559667533381225385
15131766 46 15214166231213121998
15183329 4 18408601465971251767
15301273 46 17632577132586246733
15419008 145 14189304715963132427
15840311 113 16558458782242106137
15849732 13 18273212015026796871
16994733 274 14923936838866744269
18335252 98 17967534558106007906
19301679 30 14260808131398855630
19841028 212 14692303798807639390
20105231 36 18410016541811119483
2026 5 17773039649469309974
20554085 129 11602820237525947204
21049683 271 17967535700662514341
21130935 74 16773504585858556103
21150785 3 16153427251047618247
21267235 1 18411700984691539681
21344244 181 18060424595320167958
21403212 168 9655578495908641468
21781051 124 18114753727573236099
21792938 703 17988359382210801807
21792961 116 18041282084668111858
23559900 14 18270111439803284312
23569943 247 17488748843857574894
23576562 1 18042123331564837119
246663 6 18342177765140076431
2747138 104 18411699902602400825
3004659 81 18260261962468900453
3178227 256 18408040728284911835
335352 9 18410291441081578303
3383291 50 18412824698402422451
34797466 226 18273494594517289264
4098825 35 16732977614003608997
4258327 124 15647635426808227214
44880568 143 15502927511828794271
484989 97 18041850631116972355
5265222 85 17458631163219961971
5470011 282 17748828510065855094
58260988 647 16988574446910859070
59755656 215 18272932696298229270
6081469 158 16630527319482066497

> <PUBCHEM_SHAPE_MULTIPOLES>
605.41
24.91
1.94
1.69
13.77
0.86
-0.06
-11.77
6.89
-0.76
-0.02
-1.41
-0.2
1.19

> <PUBCHEM_SHAPE_SELFOVERLAP>
1259.23

> <PUBCHEM_SHAPE_VOLUME>
341.4

> <PUBCHEM_COORDINATE_TYPE>
2
5
10

$$$$
