24094071
  -OEChem-12032416133D

 80 83  0     1  0  0  0  0  0999 V2000
   -3.8698    0.3024    0.0801 O   0  0  0  0  0  0  0  0  0  0  0  0
    3.5442   -1.3923    0.6214 O   0  0  0  0  0  0  0  0  0  0  0  0
   -1.0485    2.8459   -1.8092 O   0  0  0  0  0  0  0  0  0  0  0  0
    4.5072    1.0346    1.9108 O   0  0  0  0  0  0  0  0  0  0  0  0
   -4.3843   -1.7619    0.9454 O   0  0  0  0  0  0  0  0  0  0  0  0
    5.2366    1.5415   -0.2369 N   0  0  0  0  0  0  0  0  0  0  0  0
   -6.0317   -0.2174    0.4137 N   0  0  0  0  0  0  0  0  0  0  0  0
    0.3915    0.8288    0.6805 C   0  0  2  0  0  0  0  0  0  0  0  0
   -0.1205    0.4814   -0.7755 C   0  0  2  0  0  0  0  0  0  0  0  0
   -1.6830    0.6921   -0.9937 C   0  0  1  0  0  0  0  0  0  0  0  0
    1.9096    0.4146    0.8688 C   0  0  1  0  0  0  0  0  0  0  0  0
   -0.4888    0.0744    1.7170 C   0  0  0  0  0  0  0  0  0  0  0  0
    0.2923   -0.9658   -1.1862 C   0  0  0  0  0  0  0  0  0  0  0  0
   -2.4807   -0.0248    0.1334 C   0  0  1  0  0  0  0  0  0  0  0  0
    2.1677   -1.0514    0.4763 C   0  0  1  0  0  0  0  0  0  0  0  0
   -1.9891    0.3049    1.5423 C   0  0  0  0  0  0  0  0  0  0  0  0
    1.7555   -1.3095   -0.9598 C   0  0  0  0  0  0  0  0  0  0  0  0
    0.3056    2.3456    0.9970 C   0  0  0  0  0  0  0  0  0  0  0  0
   -2.0566    2.1935   -1.0728 C   0  0  0  0  0  0  0  0  0  0  0  0
   -2.1301    0.1119   -2.3658 C   0  0  0  0  0  0  0  0  0  0  0  0
    2.8945    1.3550    0.1349 C   0  0  0  0  0  0  0  0  0  0  0  0
    4.2764    1.2839    0.7307 C   0  0  0  0  0  0  0  0  0  0  0  0
   -4.7317   -0.6647    0.5209 C   0  0  0  0  0  0  0  0  0  0  0  0
   -7.1847   -1.0016    0.7970 C   0  0  0  0  0  0  0  0  0  0  0  0
    6.6549    1.5460    0.0397 C   0  0  0  0  0  0  0  0  0  0  0  0
   -8.3097   -0.1052    1.3252 C   0  0  0  0  0  0  0  0  0  0  0  0
   -7.6692   -1.8738   -0.3662 C   0  0  0  0  0  0  0  0  0  0  0  0
   -8.9774    0.7095    0.2174 C   0  0  0  0  0  0  0  0  0  0  0  0
   -8.3380   -1.0562   -1.4712 C   0  0  0  0  0  0  0  0  0  0  0  0
   -9.4610   -0.1810   -0.9230 C   0  0  0  0  0  0  0  0  0  0  0  0
    7.2684    0.1847   -0.1533 C   0  0  0  0  0  0  0  0  0  0  0  0
    7.3273   -0.7114    0.9141 C   0  0  0  0  0  0  0  0  0  0  0  0
    7.7775   -0.1808   -1.3996 C   0  0  0  0  0  0  0  0  0  0  0  0
    7.8954   -1.9727    0.7354 C   0  0  0  0  0  0  0  0  0  0  0  0
    8.3455   -1.4422   -1.5782 C   0  0  0  0  0  0  0  0  0  0  0  0
    8.4044   -2.3381   -0.5106 C   0  0  0  0  0  0  0  0  0  0  0  0
    0.4291    1.1254   -1.4740 H   0  0  0  0  0  0  0  0  0  0  0  0
    2.1272    0.4924    1.9439 H   0  0  0  0  0  0  0  0  0  0  0  0
   -0.3179   -1.0054    1.6596 H   0  0  0  0  0  0  0  0  0  0  0  0
   -0.2017    0.3702    2.7343 H   0  0  0  0  0  0  0  0  0  0  0  0
   -0.3179   -1.7014   -0.6507 H   0  0  0  0  0  0  0  0  0  0  0  0
    0.1026   -1.1192   -2.2542 H   0  0  0  0  0  0  0  0  0  0  0  0
   -2.3574   -1.1046   -0.0218 H   0  0  0  0  0  0  0  0  0  0  0  0
    1.6183   -1.7203    1.1462 H   0  0  0  0  0  0  0  0  0  0  0  0
   -2.5212   -0.3183    2.2725 H   0  0  0  0  0  0  0  0  0  0  0  0
   -2.2667    1.3291    1.8139 H   0  0  0  0  0  0  0  0  0  0  0  0
    2.3921   -0.7665   -1.6669 H   0  0  0  0  0  0  0  0  0  0  0  0
    1.9183   -2.3683   -1.2003 H   0  0  0  0  0  0  0  0  0  0  0  0
    0.6081    2.9651    0.1481 H   0  0  0  0  0  0  0  0  0  0  0  0
    0.9481    2.6024    1.8488 H   0  0  0  0  0  0  0  0  0  0  0  0
   -0.6887    2.6731    1.2986 H   0  0  0  0  0  0  0  0  0  0  0  0
   -2.1496    2.6654   -0.0951 H   0  0  0  0  0  0  0  0  0  0  0  0
   -3.0167    2.3504   -1.5780 H   0  0  0  0  0  0  0  0  0  0  0  0
   -1.5112    0.4991   -3.1829 H   0  0  0  0  0  0  0  0  0  0  0  0
   -2.0816   -0.9819   -2.3855 H   0  0  0  0  0  0  0  0  0  0  0  0
   -3.1724    0.3685   -2.5898 H   0  0  0  0  0  0  0  0  0  0  0  0
    2.9133    1.1597   -0.9406 H   0  0  0  0  0  0  0  0  0  0  0  0
    2.6260    2.4088    0.2442 H   0  0  0  0  0  0  0  0  0  0  0  0
    3.6447   -2.3283    0.3780 H   0  0  0  0  0  0  0  0  0  0  0  0
   -1.2867    3.7873   -1.8552 H   0  0  0  0  0  0  0  0  0  0  0  0
    4.9491    1.7317   -1.1925 H   0  0  0  0  0  0  0  0  0  0  0  0
   -6.1778    0.6986    0.0008 H   0  0  0  0  0  0  0  0  0  0  0  0
   -6.8664   -1.6662    1.6099 H   0  0  0  0  0  0  0  0  0  0  0  0
    7.1208    2.2758   -0.6322 H   0  0  0  0  0  0  0  0  0  0  0  0
    6.8265    1.8988    1.0635 H   0  0  0  0  0  0  0  0  0  0  0  0
   -9.0696   -0.7335    1.8072 H   0  0  0  0  0  0  0  0  0  0  0  0
   -7.9249    0.5750    2.0947 H   0  0  0  0  0  0  0  0  0  0  0  0
   -6.8359   -2.4454   -0.7921 H   0  0  0  0  0  0  0  0  0  0  0  0
   -8.3923   -2.6059    0.0157 H   0  0  0  0  0  0  0  0  0  0  0  0
   -9.8273    1.2621    0.6341 H   0  0  0  0  0  0  0  0  0  0  0  0
   -8.2785    1.4586   -0.1727 H   0  0  0  0  0  0  0  0  0  0  0  0
   -7.5912   -0.4250   -1.9680 H   0  0  0  0  0  0  0  0  0  0  0  0
   -8.7392   -1.7321   -2.2350 H   0  0  0  0  0  0  0  0  0  0  0  0
  -10.2780   -0.8196   -0.5648 H   0  0  0  0  0  0  0  0  0  0  0  0
   -9.8712    0.4397   -1.7274 H   0  0  0  0  0  0  0  0  0  0  0  0
    6.9368   -0.4396    1.8909 H   0  0  0  0  0  0  0  0  0  0  0  0
    7.7356    0.5076   -2.2394 H   0  0  0  0  0  0  0  0  0  0  0  0
    7.9416   -2.6703    1.5667 H   0  0  0  0  0  0  0  0  0  0  0  0
    8.7413   -1.7272   -2.5486 H   0  0  0  0  0  0  0  0  0  0  0  0
    8.8465   -3.3203   -0.6498 H   0  0  0  0  0  0  0  0  0  0  0  0
  1 14  1  0  0  0  0
  1 23  1  0  0  0  0
  2 15  1  0  0  0  0
  2 59  1  0  0  0  0
  3 19  1  0  0  0  0
  3 60  1  0  0  0  0
  4 22  2  0  0  0  0
  5 23  2  0  0  0  0
  6 22  1  0  0  0  0
  6 25  1  0  0  0  0
  6 61  1  0  0  0  0
  7 23  1  0  0  0  0
  7 24  1  0  0  0  0
  7 62  1  0  0  0  0
  8  9  1  0  0  0  0
  8 11  1  0  0  0  0
  8 12  1  0  0  0  0
  8 18  1  0  0  0  0
  9 10  1  0  0  0  0
  9 13  1  0  0  0  0
  9 37  1  0  0  0  0
 10 14  1  0  0  0  0
 10 19  1  0  0  0  0
 10 20  1  0  0  0  0
 11 15  1  0  0  0  0
 11 21  1  0  0  0  0
 11 38  1  0  0  0  0
 12 16  1  0  0  0  0
 12 39  1  0  0  0  0
 12 40  1  0  0  0  0
 13 17  1  0  0  0  0
 13 41  1  0  0  0  0
 13 42  1  0  0  0  0
 14 16  1  0  0  0  0
 14 43  1  0  0  0  0
 15 17  1  0  0  0  0
 15 44  1  0  0  0  0
 16 45  1  0  0  0  0
 16 46  1  0  0  0  0
 17 47  1  0  0  0  0
 17 48  1  0  0  0  0
 18 49  1  0  0  0  0
 18 50  1  0  0  0  0
 18 51  1  0  0  0  0
 19 52  1  0  0  0  0
 19 53  1  0  0  0  0
 20 54  1  0  0  0  0
 20 55  1  0  0  0  0
 20 56  1  0  0  0  0
 21 22  1  0  0  0  0
 21 57  1  0  0  0  0
 21 58  1  0  0  0  0
 24 26  1  0  0  0  0
 24 27  1  0  0  0  0
 24 63  1  0  0  0  0
 25 31  1  0  0  0  0
 25 64  1  0  0  0  0
 25 65  1  0  0  0  0
 26 28  1  0  0  0  0
 26 66  1  0  0  0  0
 26 67  1  0  0  0  0
 27 29  1  0  0  0  0
 27 68  1  0  0  0  0
 27 69  1  0  0  0  0
 28 30  1  0  0  0  0
 28 70  1  0  0  0  0
 28 71  1  0  0  0  0
 29 30  1  0  0  0  0
 29 72  1  0  0  0  0
 29 73  1  0  0  0  0
 30 74  1  0  0  0  0
 30 75  1  0  0  0  0
 31 32  2  0  0  0  0
 31 33  1  0  0  0  0
 32 34  1  0  0  0  0
 32 76  1  0  0  0  0
 33 35  2  0  0  0  0
 33 77  1  0  0  0  0
 34 36  2  0  0  0  0
 34 78  1  0  0  0  0
 35 36  1  0  0  0  0
 35 79  1  0  0  0  0
 36 80  1  0  0  0  0
M  END
> <PUBCHEM_COMPOUND_CID>
24094071

> <PUBCHEM_CONFORMER_RMSD>
1.2

> <PUBCHEM_CONFORMER_DIVERSEORDER>
27
33
3
76
14
40
12
36
72
32
50
29
18
6
61
56
89
28
64
23
55
1
58
78
43
53
34
49
87
31
62
88
79
26
16
38
75
44
4
57
82
85
8
59
83
86
5
21
39
54
42
47
84
68
73
60
48
37
81
35
52
51
69
65
30
70
63
17
80
74
67
19
24
9
22
7
66
15
11
20
2
25
10
77
41
45
46
71
13

> <PUBCHEM_MMFF94_PARTIAL_CHARGES>
30
1 -0.43
14 0.28
15 0.28
19 0.28
2 -0.68
21 0.06
22 0.57
23 0.78
24 0.3
25 0.44
3 -0.68
31 -0.14
32 -0.15
33 -0.15
34 -0.15
35 -0.15
36 -0.15
4 -0.57
5 -0.57
59 0.4
6 -0.73
60 0.4
61 0.37
62 0.37
7 -0.73
76 0.15
77 0.15
78 0.15
79 0.15
80 0.15

> <PUBCHEM_EFFECTIVE_ROTOR_COUNT>
12.8

> <PUBCHEM_PHARMACOPHORE_FEATURES>
12
1 2 acceptor
1 2 donor
1 3 acceptor
1 3 donor
1 4 acceptor
1 5 acceptor
1 6 donor
1 7 donor
6 24 26 27 28 29 30 rings
6 31 32 33 34 35 36 rings
6 8 9 10 12 14 16 rings
6 8 9 11 13 15 17 rings

> <PUBCHEM_HEAVY_ATOM_COUNT>
36

> <PUBCHEM_ATOM_DEF_STEREO_COUNT>
5

> <PUBCHEM_ATOM_UDEF_STEREO_COUNT>
1

> <PUBCHEM_BOND_DEF_STEREO_COUNT>
0

> <PUBCHEM_BOND_UDEF_STEREO_COUNT>
0

> <PUBCHEM_ISOTOPIC_ATOM_COUNT>
0

> <PUBCHEM_COMPONENT_COUNT>
1

> <PUBCHEM_CACTVS_TAUTO_COUNT>
4

> <PUBCHEM_CONFORMER_ID>
016FA5770000001B

> <PUBCHEM_MMFF94_ENERGY>
101.2909

> <PUBCHEM_FEATURE_SELFOVERLAP>
60.954

> <PUBCHEM_SHAPE_FINGERPRINT>
11135926 11 17131827643217803983
11181472 205 14418398950062095541
11443803 9 13110960908110411789
11672396 167 17096357342868099594
12089408 11 17632579370643867065
12166972 35 18187370935335248116
13383665 225 16298669361085113678
13782708 43 18411979187631067046
13811026 1 18411418397196687721
14117953 113 18186801400484448215
14294032 229 15648159795523843917
14955137 171 18271527602068709912
15131766 46 17413013649844733352
15198563 99 17313092030625021901
15301273 46 18410575110601733297
15840311 113 18200591509406043968
15849732 13 16056882468266425889
16067689 302 18059581223010581462
19301679 30 17489317326608976736
20105231 36 17989209210188367862
2026 5 18266457617031428930
20771845 140 16415478221673738446
21781051 124 18411986879838619898
21792934 111 15698281096835636824
21792938 169 17417808383930081318
21792938 703 17822862000183812747
21792961 116 18343017753353381665
3633792 109 14634868639328741382
4325135 7 18113056051544362689
437795 160 13254786958982496077
439807 62 18333453128153761042
4625314 4 18410009979242782045
6081469 158 18335421265976396285
6523845 18 15698277794158934967

> <PUBCHEM_SHAPE_MULTIPOLES>
701.55
30.31
2.14
1.68
13.75
0.29
0.38
-15.23
1.65
-2.21
0.31
0.39
0.16
0.51

> <PUBCHEM_SHAPE_SELFOVERLAP>
1462.479

> <PUBCHEM_SHAPE_VOLUME>
391.5

> <PUBCHEM_COORDINATE_TYPE>
2
5
10

$$$$
