71692924
  -OEChem-12032416233D

 80 84  0     1  0  0  0  0  0999 V2000
    5.7574    0.6954   -1.9235 O   0  0  0  0  0  0  0  0  0  0  0  0
    0.1845    3.4436    1.2135 O   0  0  0  0  0  0  0  0  0  0  0  0
    0.2938   -1.8510    0.8824 O   0  0  0  0  0  0  0  0  0  0  0  0
    1.9914    2.0783    1.6917 N   0  0  0  0  0  0  0  0  0  0  0  0
    7.4456    0.8204   -0.3314 N   0  0  0  0  0  0  0  0  0  0  0  0
   -0.6626    0.4629    2.3637 N   0  0  0  0  0  0  0  0  0  0  0  0
   -5.1563   -2.3688   -0.2204 N   0  0  3  0  0  0  0  0  0  0  0  0
   -8.1365    0.6413   -1.8223 N   0  0  0  0  0  0  0  0  0  0  0  0
    9.1047   -0.3896   -1.6152 C   0  0  0  0  0  0  0  0  0  0  0  0
    9.9295   -0.5508   -2.8620 C   0  0  0  0  0  0  0  0  0  0  0  0
    8.5461   -1.1349   -2.7958 C   0  0  0  0  0  0  0  0  0  0  0  0
    3.7259    0.4713   -0.0126 C   0  0  1  0  0  0  0  0  0  0  0  0
    2.7730   -0.1387    1.0581 C   0  0  2  0  0  0  0  0  0  0  0  0
    8.5585    0.9470   -1.2443 C   0  0  0  0  0  0  0  0  0  0  0  0
    3.1798    1.8511   -0.4498 C   0  0  0  0  0  0  0  0  0  0  0  0
    2.5683    0.8410    2.2292 C   0  0  0  0  0  0  0  0  0  0  0  0
    5.1911    0.5862    0.4263 C   0  0  0  0  0  0  0  0  0  0  0  0
    2.8660    2.7651    0.7377 C   0  0  0  0  0  0  0  0  0  0  0  0
    6.1292    0.7045   -0.7532 C   0  0  0  0  0  0  0  0  0  0  0  0
    3.1897   -1.4992    1.5500 C   0  0  0  0  0  0  0  0  0  0  0  0
    0.6679    2.4923    1.8388 C   0  0  0  0  0  0  0  0  0  0  0  0
    2.5138   -2.6595    1.4904 C   0  0  0  0  0  0  0  0  0  0  0  0
   -0.2150    1.7689    2.8389 C   0  0  0  0  0  0  0  0  0  0  0  0
    1.1346   -2.9944    0.9824 C   0  0  0  0  0  0  0  0  0  0  0  0
   -1.3141    0.4693    1.0557 C   0  0  0  0  0  0  0  0  0  0  0  0
   -1.8633   -0.8998    0.6918 C   0  0  0  0  0  0  0  0  0  0  0  0
   -1.0355   -2.0424    0.5990 C   0  0  0  0  0  0  0  0  0  0  0  0
   -3.2342   -1.0266    0.4139 C   0  0  0  0  0  0  0  0  0  0  0  0
   -1.5916   -3.2730    0.2297 C   0  0  0  0  0  0  0  0  0  0  0  0
   -3.7775   -2.2585    0.0537 C   0  0  0  0  0  0  0  0  0  0  0  0
   -2.9571   -3.3781   -0.0394 C   0  0  0  0  0  0  0  0  0  0  0  0
   -6.0201   -1.2092   -0.1185 C   0  0  0  0  0  0  0  0  0  0  0  0
   -5.7296   -3.6448   -0.6001 C   0  0  0  0  0  0  0  0  0  0  0  0
   -5.9622   -0.3708   -1.3947 C   0  0  0  0  0  0  0  0  0  0  0  0
   -6.8803    0.8266   -1.3587 C   0  0  0  0  0  0  0  0  0  0  0  0
   -6.4058    2.0307   -0.8638 C   0  0  0  0  0  0  0  0  0  0  0  0
   -7.2769    3.1142   -0.8431 C   0  0  0  0  0  0  0  0  0  0  0  0
   -8.9547    1.7171   -1.7866 C   0  0  0  0  0  0  0  0  0  0  0  0
   -8.5775    2.9627   -1.3114 C   0  0  0  0  0  0  0  0  0  0  0  0
    9.4095   -0.9668   -0.7493 H   0  0  0  0  0  0  0  0  0  0  0  0
   10.7677   -1.2358   -2.8271 H   0  0  0  0  0  0  0  0  0  0  0  0
   10.0816    0.3125   -3.4981 H   0  0  0  0  0  0  0  0  0  0  0  0
    7.7776   -0.6658   -3.3972 H   0  0  0  0  0  0  0  0  0  0  0  0
    8.4559   -2.2111   -2.7139 H   0  0  0  0  0  0  0  0  0  0  0  0
    3.6799   -0.1916   -0.8884 H   0  0  0  0  0  0  0  0  0  0  0  0
    1.8121   -0.2264    0.5440 H   0  0  0  0  0  0  0  0  0  0  0  0
    8.2348    1.5118   -2.1259 H   0  0  0  0  0  0  0  0  0  0  0  0
    9.3298    1.5318   -0.7326 H   0  0  0  0  0  0  0  0  0  0  0  0
    3.8721    2.3587   -1.1297 H   0  0  0  0  0  0  0  0  0  0  0  0
    2.2528    1.6880   -1.0159 H   0  0  0  0  0  0  0  0  0  0  0  0
    1.9218    0.3987    2.9895 H   0  0  0  0  0  0  0  0  0  0  0  0
    3.5157    1.0918    2.7208 H   0  0  0  0  0  0  0  0  0  0  0  0
    5.5124   -0.3088    0.9674 H   0  0  0  0  0  0  0  0  0  0  0  0
    5.3516    1.4395    1.0933 H   0  0  0  0  0  0  0  0  0  0  0  0
    3.7781    3.0564    1.2693 H   0  0  0  0  0  0  0  0  0  0  0  0
    2.3979    3.6862    0.3758 H   0  0  0  0  0  0  0  0  0  0  0  0
    7.6525    0.7976    0.6630 H   0  0  0  0  0  0  0  0  0  0  0  0
    4.1656   -1.5533    2.0290 H   0  0  0  0  0  0  0  0  0  0  0  0
    3.0384   -3.5276    1.8920 H   0  0  0  0  0  0  0  0  0  0  0  0
    0.3232    1.6631    3.7865 H   0  0  0  0  0  0  0  0  0  0  0  0
   -1.0848    2.4029    3.0507 H   0  0  0  0  0  0  0  0  0  0  0  0
    0.6959   -3.7044    1.6948 H   0  0  0  0  0  0  0  0  0  0  0  0
    1.2362   -3.4766    0.0032 H   0  0  0  0  0  0  0  0  0  0  0  0
   -1.2976    0.0675    3.0575 H   0  0  0  0  0  0  0  0  0  0  0  0
   -0.6120    0.7603    0.2653 H   0  0  0  0  0  0  0  0  0  0  0  0
   -2.1247    1.2083    1.0556 H   0  0  0  0  0  0  0  0  0  0  0  0
   -3.8346   -0.1262    0.4891 H   0  0  0  0  0  0  0  0  0  0  0  0
   -0.9874   -4.1705    0.1382 H   0  0  0  0  0  0  0  0  0  0  0  0
   -3.3311   -4.3585   -0.3183 H   0  0  0  0  0  0  0  0  0  0  0  0
   -7.0580   -1.5406    0.0268 H   0  0  0  0  0  0  0  0  0  0  0  0
   -5.8206   -0.6136    0.7808 H   0  0  0  0  0  0  0  0  0  0  0  0
   -5.6199   -4.3825    0.2023 H   0  0  0  0  0  0  0  0  0  0  0  0
   -5.2713   -4.0283   -1.5185 H   0  0  0  0  0  0  0  0  0  0  0  0
   -6.8028   -3.5583   -0.8051 H   0  0  0  0  0  0  0  0  0  0  0  0
   -4.9417   -0.0357   -1.6149 H   0  0  0  0  0  0  0  0  0  0  0  0
   -6.2478   -0.9965   -2.2513 H   0  0  0  0  0  0  0  0  0  0  0  0
   -5.3899    2.1377   -0.4988 H   0  0  0  0  0  0  0  0  0  0  0  0
   -6.9433    4.0748   -0.4622 H   0  0  0  0  0  0  0  0  0  0  0  0
   -9.9579    1.5466   -2.1630 H   0  0  0  0  0  0  0  0  0  0  0  0
   -9.2737    3.7934   -1.3046 H   0  0  0  0  0  0  0  0  0  0  0  0
  1 19  2  0  0  0  0
  2 21  2  0  0  0  0
  3 24  1  0  0  0  0
  3 27  1  0  0  0  0
  4 16  1  0  0  0  0
  4 18  1  0  0  0  0
  4 21  1  0  0  0  0
  5 14  1  0  0  0  0
  5 19  1  0  0  0  0
  5 57  1  0  0  0  0
  6 23  1  0  0  0  0
  6 25  1  0  0  0  0
  6 64  1  0  0  0  0
  7 30  1  0  0  0  0
  7 32  1  0  0  0  0
  7 33  1  0  0  0  0
  8 35  1  0  0  0  0
  8 38  2  0  0  0  0
  9 10  1  0  0  0  0
  9 11  1  0  0  0  0
  9 14  1  0  0  0  0
  9 40  1  0  0  0  0
 10 11  1  0  0  0  0
 10 41  1  0  0  0  0
 10 42  1  0  0  0  0
 11 43  1  0  0  0  0
 11 44  1  0  0  0  0
 12 13  1  0  0  0  0
 12 15  1  0  0  0  0
 12 17  1  0  0  0  0
 12 45  1  0  0  0  0
 13 16  1  0  0  0  0
 13 20  1  0  0  0  0
 13 46  1  0  0  0  0
 14 47  1  0  0  0  0
 14 48  1  0  0  0  0
 15 18  1  0  0  0  0
 15 49  1  0  0  0  0
 15 50  1  0  0  0  0
 16 51  1  0  0  0  0
 16 52  1  0  0  0  0
 17 19  1  0  0  0  0
 17 53  1  0  0  0  0
 17 54  1  0  0  0  0
 18 55  1  0  0  0  0
 18 56  1  0  0  0  0
 20 22  2  0  0  0  0
 20 58  1  0  0  0  0
 21 23  1  0  0  0  0
 22 24  1  0  0  0  0
 22 59  1  0  0  0  0
 23 60  1  0  0  0  0
 23 61  1  0  0  0  0
 24 62  1  0  0  0  0
 24 63  1  0  0  0  0
 25 26  1  0  0  0  0
 25 65  1  0  0  0  0
 25 66  1  0  0  0  0
 26 27  2  0  0  0  0
 26 28  1  0  0  0  0
 27 29  1  0  0  0  0
 28 30  2  0  0  0  0
 28 67  1  0  0  0  0
 29 31  2  0  0  0  0
 29 68  1  0  0  0  0
 30 31  1  0  0  0  0
 31 69  1  0  0  0  0
 32 34  1  0  0  0  0
 32 70  1  0  0  0  0
 32 71  1  0  0  0  0
 33 72  1  0  0  0  0
 33 73  1  0  0  0  0
 33 74  1  0  0  0  0
 34 35  1  0  0  0  0
 34 75  1  0  0  0  0
 34 76  1  0  0  0  0
 35 36  2  0  0  0  0
 36 37  1  0  0  0  0
 36 77  1  0  0  0  0
 37 39  2  0  0  0  0
 37 78  1  0  0  0  0
 38 39  1  0  0  0  0
 38 79  1  0  0  0  0
 39 80  1  0  0  0  0
M  END
> <PUBCHEM_COMPOUND_CID>
71692924

> <PUBCHEM_CONFORMER_RMSD>
1.4

> <PUBCHEM_CONFORMER_DIVERSEORDER>
1
94
55
11
87
110
74
46
50
93
132
16
130
58
105
107
77
20
100
96
124
23
104
79
84
69
92
60
95
25
90
112
134
37
8
117
52
108
113
125
121
10
54
115
111
62
103
33
143
12
43
129
106
109
137
35
136
30
122
31
19
120
126
68
45
133
97
116
3
118
53
99
86
139
49
80
61
63
81
56
75
13
102
91
73
36
51
98
22
119
138
82
70
141
114
101
57
142
4
128
32
131
140
17
38
71
135
41
83
66
67
39
78
21
85
29
14
88
65
127
89
6
144
26
123
34
42
64
59
40
9
28
76
7
44
48
24
15
2
27
47
18
5
72

> <PUBCHEM_MMFF94_PARTIAL_CHARGES>
53
1 -0.57
10 -0.2
11 -0.2
13 0.14
14 0.4
16 0.3
17 0.06
18 0.3
19 0.57
2 -0.57
20 -0.29
21 0.57
22 -0.29
23 0.33
24 0.42
25 0.41
26 -0.14
27 0.08
28 -0.15
29 -0.15
3 -0.36
30 0.1
31 -0.15
32 0.37
33 0.37
34 0.14
35 0.17
36 -0.15
37 -0.15
38 0.16
39 -0.15
4 -0.66
40 0.1
41 0.1
42 0.1
43 0.1
44 0.1
5 -0.73
57 0.37
58 0.15
59 0.15
6 -0.9
64 0.36
67 0.15
68 0.15
69 0.15
7 -0.84
77 0.15
78 0.15
79 0.15
8 -0.62
80 0.15
9 -0.19

> <PUBCHEM_EFFECTIVE_ROTOR_COUNT>
11.4

> <PUBCHEM_PHARMACOPHORE_FEATURES>
11
1 1 acceptor
1 2 acceptor
1 3 acceptor
1 5 donor
1 6 cation
1 6 donor
1 7 cation
1 8 acceptor
6 26 27 28 29 30 31 rings
6 4 12 13 15 16 18 rings
6 8 35 36 37 38 39 rings

> <PUBCHEM_HEAVY_ATOM_COUNT>
39

> <PUBCHEM_ATOM_DEF_STEREO_COUNT>
2

> <PUBCHEM_ATOM_UDEF_STEREO_COUNT>
0

> <PUBCHEM_BOND_DEF_STEREO_COUNT>
1

> <PUBCHEM_BOND_UDEF_STEREO_COUNT>
0

> <PUBCHEM_ISOTOPIC_ATOM_COUNT>
0

> <PUBCHEM_COMPONENT_COUNT>
1

> <PUBCHEM_CACTVS_TAUTO_COUNT>
8

> <PUBCHEM_CONFORMER_ID>
0445F27C00000001

> <PUBCHEM_MMFF94_ENERGY>
119.2105

> <PUBCHEM_FEATURE_SELFOVERLAP>
55.822

> <PUBCHEM_SHAPE_FINGERPRINT>
10190206 1 18272656718932502705
10483366 6 18411413990893097369
10674148 151 17603864542306115356
10864689 126 18341046406435653098
11411753 3 18127123306352486459
11828042 58 18335147492566981851
1200032 147 17458343022469500858
12013929 112 18334862688938454294
12124843 1 18341054128907846262
12133447 93 18335137609599398294
13811026 1 17917993906265067064
14664723 55 18040433334806003613
14931854 50 18412549821122803546
15183329 4 18342165662555596609
15347590 135 11746934265960068231
15519825 34 11815895652128424124
15975801 100 17314212398487671917
16992727 255 18334015012221998508
23559900 14 17913770784591073242
23576562 1 18261955270938293325
3986486 107 18343021073083358340
4339292 15 17131837530791882892
444735 79 8935001490641457033
50009960 94 12247676071784863471
508180 173 18339080500719015697
9962374 69 12967127233323469882

> <PUBCHEM_SHAPE_MULTIPOLES>
760.09
28.72
4.32
2.51
12.93
1.32
0.13
-11.94
33.95
-7.4
-0.74
3.78
-0.89
2.71

> <PUBCHEM_SHAPE_SELFOVERLAP>
1593.14

> <PUBCHEM_SHAPE_VOLUME>
423.4

> <PUBCHEM_COORDINATE_TYPE>
2
5
10

$$$$
