38028470
  -OEChem-12032416253D

 70 72  0     1  0  0  0  0  0999 V2000
   -3.7208   -1.4300    1.8910 O   0  0  0  0  0  0  0  0  0  0  0  0
    1.4949    1.7645   -2.0188 O   0  0  0  0  0  0  0  0  0  0  0  0
    6.8834   -0.7020    0.6745 O   0  0  0  0  0  0  0  0  0  0  0  0
    0.1666    3.0441   -0.6221 N   0  0  0  0  0  0  0  0  0  0  0  0
   -1.4213   -1.6444    2.1501 N   0  0  0  0  0  0  0  0  0  0  0  0
    2.1054    2.1159    0.2205 N   0  0  0  0  0  0  0  0  0  0  0  0
    0.1381   -3.7690   -1.2539 N   0  0  0  0  0  0  0  0  0  0  0  0
   -2.2370    1.2935   -1.0713 C   0  0  1  0  0  0  0  0  0  0  0  0
   -2.2122    2.8417   -1.1213 C   0  0  1  0  0  0  0  0  0  0  0  0
   -3.4219    0.8033   -0.2252 C   0  0  0  0  0  0  0  0  0  0  0  0
   -3.3673    1.3374    1.2186 C   0  0  2  0  0  0  0  0  0  0  0  0
   -2.3119    0.6803   -2.4731 C   0  0  0  0  0  0  0  0  0  0  0  0
   -3.0766    2.8239    1.2584 C   0  0  0  0  0  0  0  0  0  0  0  0
   -2.5731    3.4816    0.1988 C   0  0  0  0  0  0  0  0  0  0  0  0
   -0.8445    3.3584   -1.5822 C   0  0  0  0  0  0  0  0  0  0  0  0
   -2.3501    0.5566    2.0582 C   0  0  0  0  0  0  0  0  0  0  0  0
   -1.7466   -0.7364   -2.4652 C   0  0  0  0  0  0  0  0  0  0  0  0
   -3.7504    0.6860   -2.9801 C   0  0  0  0  0  0  0  0  0  0  0  0
   -3.4208    3.5473    2.5306 C   0  0  0  0  0  0  0  0  0  0  0  0
   -2.6052   -0.9332    2.0197 C   0  0  0  0  0  0  0  0  0  0  0  0
    1.2933    2.2516   -0.9089 C   0  0  0  0  0  0  0  0  0  0  0  0
   -1.3639   -3.0881    2.1493 C   0  0  0  0  0  0  0  0  0  0  0  0
   -1.1849   -3.6427    0.7656 C   0  0  0  0  0  0  0  0  0  0  0  0
    3.3198    1.3999    0.3354 C   0  0  0  0  0  0  0  0  0  0  0  0
   -2.1229   -4.5085    0.2142 C   0  0  0  0  0  0  0  0  0  0  0  0
   -0.0818   -3.3068   -0.0026 C   0  0  0  0  0  0  0  0  0  0  0  0
    4.0006    1.3730    1.5525 C   0  0  0  0  0  0  0  0  0  0  0  0
    3.8364    0.7205   -0.7678 C   0  0  0  0  0  0  0  0  0  0  0  0
   -1.9317   -5.0050   -1.0705 C   0  0  0  0  0  0  0  0  0  0  0  0
    5.1980    0.6666    1.6664 C   0  0  0  0  0  0  0  0  0  0  0  0
    5.0340    0.0143   -0.6541 C   0  0  0  0  0  0  0  0  0  0  0  0
    5.7148   -0.0127    0.5631 C   0  0  0  0  0  0  0  0  0  0  0  0
   -0.7950   -4.6082   -1.7566 C   0  0  0  0  0  0  0  0  0  0  0  0
    7.3544   -1.3736   -0.4929 C   0  0  0  0  0  0  0  0  0  0  0  0
   -1.3169    0.9395   -0.5903 H   0  0  0  0  0  0  0  0  0  0  0  0
   -2.9554    3.1971   -1.8461 H   0  0  0  0  0  0  0  0  0  0  0  0
   -3.5032   -0.2856   -0.2546 H   0  0  0  0  0  0  0  0  0  0  0  0
   -4.3652    1.1854   -0.6382 H   0  0  0  0  0  0  0  0  0  0  0  0
   -4.3657    1.1739    1.6483 H   0  0  0  0  0  0  0  0  0  0  0  0
   -1.7027    1.2582   -3.1757 H   0  0  0  0  0  0  0  0  0  0  0  0
   -2.4287    4.5580    0.2686 H   0  0  0  0  0  0  0  0  0  0  0  0
   -0.8640    4.4515   -1.6694 H   0  0  0  0  0  0  0  0  0  0  0  0
   -0.5730    2.9728   -2.5685 H   0  0  0  0  0  0  0  0  0  0  0  0
   -2.4081    0.8577    3.1113 H   0  0  0  0  0  0  0  0  0  0  0  0
   -1.3294    0.7764    1.7218 H   0  0  0  0  0  0  0  0  0  0  0  0
   -2.3153   -1.4073   -1.8142 H   0  0  0  0  0  0  0  0  0  0  0  0
   -0.7041   -0.7390   -2.1290 H   0  0  0  0  0  0  0  0  0  0  0  0
   -1.7668   -1.1627   -3.4742 H   0  0  0  0  0  0  0  0  0  0  0  0
   -4.3852   -0.0558   -2.4842 H   0  0  0  0  0  0  0  0  0  0  0  0
   -3.7573    0.4190   -4.0443 H   0  0  0  0  0  0  0  0  0  0  0  0
   -4.2208    1.6710   -2.9066 H   0  0  0  0  0  0  0  0  0  0  0  0
   -4.4754    3.3939    2.7814 H   0  0  0  0  0  0  0  0  0  0  0  0
   -3.2557    4.6269    2.4488 H   0  0  0  0  0  0  0  0  0  0  0  0
   -2.8081    3.1831    3.3606 H   0  0  0  0  0  0  0  0  0  0  0  0
    0.1075    3.4670    0.2992 H   0  0  0  0  0  0  0  0  0  0  0  0
   -0.5436   -1.1427    2.2486 H   0  0  0  0  0  0  0  0  0  0  0  0
   -2.2763   -3.4782    2.6144 H   0  0  0  0  0  0  0  0  0  0  0  0
   -0.5181   -3.3891    2.7776 H   0  0  0  0  0  0  0  0  0  0  0  0
    1.7912    2.5840    1.0668 H   0  0  0  0  0  0  0  0  0  0  0  0
   -3.0067   -4.8027    0.7732 H   0  0  0  0  0  0  0  0  0  0  0  0
    0.6865   -2.6374    0.3721 H   0  0  0  0  0  0  0  0  0  0  0  0
    3.6089    1.8979    2.4200 H   0  0  0  0  0  0  0  0  0  0  0  0
    3.3669    0.6951   -1.7411 H   0  0  0  0  0  0  0  0  0  0  0  0
   -2.6499   -5.6805   -1.5209 H   0  0  0  0  0  0  0  0  0  0  0  0
    5.7239    0.6491    2.6171 H   0  0  0  0  0  0  0  0  0  0  0  0
    5.3795   -0.4915   -1.5495 H   0  0  0  0  0  0  0  0  0  0  0  0
   -0.5999   -4.9665   -2.7619 H   0  0  0  0  0  0  0  0  0  0  0  0
    8.2932   -1.8689   -0.2241 H   0  0  0  0  0  0  0  0  0  0  0  0
    7.5847   -0.6676   -1.2980 H   0  0  0  0  0  0  0  0  0  0  0  0
    6.6600   -2.1575   -0.8139 H   0  0  0  0  0  0  0  0  0  0  0  0
  1 20  2  0  0  0  0
  2 21  2  0  0  0  0
  3 32  1  0  0  0  0
  3 34  1  0  0  0  0
  4 15  1  0  0  0  0
  4 21  1  0  0  0  0
  4 55  1  0  0  0  0
  5 20  1  0  0  0  0
  5 22  1  0  0  0  0
  5 56  1  0  0  0  0
  6 21  1  0  0  0  0
  6 24  1  0  0  0  0
  6 59  1  0  0  0  0
  7 26  1  0  0  0  0
  7 33  2  0  0  0  0
  8  9  1  0  0  0  0
  8 10  1  0  0  0  0
  8 12  1  0  0  0  0
  8 35  1  0  0  0  0
  9 14  1  0  0  0  0
  9 15  1  0  0  0  0
  9 36  1  0  0  0  0
 10 11  1  0  0  0  0
 10 37  1  0  0  0  0
 10 38  1  0  0  0  0
 11 13  1  0  0  0  0
 11 16  1  0  0  0  0
 11 39  1  0  0  0  0
 12 17  1  0  0  0  0
 12 18  1  0  0  0  0
 12 40  1  0  0  0  0
 13 14  2  0  0  0  0
 13 19  1  0  0  0  0
 14 41  1  0  0  0  0
 15 42  1  0  0  0  0
 15 43  1  0  0  0  0
 16 20  1  0  0  0  0
 16 44  1  0  0  0  0
 16 45  1  0  0  0  0
 17 46  1  0  0  0  0
 17 47  1  0  0  0  0
 17 48  1  0  0  0  0
 18 49  1  0  0  0  0
 18 50  1  0  0  0  0
 18 51  1  0  0  0  0
 19 52  1  0  0  0  0
 19 53  1  0  0  0  0
 19 54  1  0  0  0  0
 22 23  1  0  0  0  0
 22 57  1  0  0  0  0
 22 58  1  0  0  0  0
 23 25  1  0  0  0  0
 23 26  2  0  0  0  0
 24 27  2  0  0  0  0
 24 28  1  0  0  0  0
 25 29  2  0  0  0  0
 25 60  1  0  0  0  0
 26 61  1  0  0  0  0
 27 30  1  0  0  0  0
 27 62  1  0  0  0  0
 28 31  2  0  0  0  0
 28 63  1  0  0  0  0
 29 33  1  0  0  0  0
 29 64  1  0  0  0  0
 30 32  2  0  0  0  0
 30 65  1  0  0  0  0
 31 32  1  0  0  0  0
 31 66  1  0  0  0  0
 33 67  1  0  0  0  0
 34 68  1  0  0  0  0
 34 69  1  0  0  0  0
 34 70  1  0  0  0  0
M  END
> <PUBCHEM_COMPOUND_CID>
38028470

> <PUBCHEM_CONFORMER_RMSD>
1.2

> <PUBCHEM_CONFORMER_DIVERSEORDER>
1
4
93
62
68
83
57
99
46
92
15
39
42
101
116
36
119
25
34
123
48
124
26
81
126
47
18
7
97
19
17
91
120
74
84
55
45
108
54
88
72
78
64
86
31
71
117
113
77
6
121
2
30
66
23
87
58
135
100
134
76
63
21
3
40
79
129
73
35
37
24
49
114
95
12
90
105
33
27
70
127
111
85
41
29
44
8
107
125
69
52
38
61
122
28
118
65
50
53
75
104
13
67
89
80
5
22
9
102
133
103
56
11
43
82
131
110
60
32
130
10
20
96
98
94
51
16
132
128
59
109
115
106
14
112

> <PUBCHEM_MMFF94_PARTIAL_CHARGES>
41
1 -0.57
11 0.14
13 -0.28
14 -0.29
15 0.3
16 0.06
19 0.14
2 -0.57
20 0.57
21 0.69
22 0.44
23 -0.14
24 0.12
25 -0.15
26 0.16
27 -0.15
28 -0.15
29 -0.15
3 -0.36
30 -0.15
31 -0.15
32 0.08
33 0.16
34 0.28
4 -0.73
41 0.15
5 -0.73
55 0.37
56 0.37
59 0.37
6 -0.55
60 0.15
61 0.15
62 0.15
63 0.15
64 0.15
65 0.15
66 0.15
67 0.15
7 -0.62
9 0.14

> <PUBCHEM_EFFECTIVE_ROTOR_COUNT>
12.8

> <PUBCHEM_PHARMACOPHORE_FEATURES>
11
1 1 acceptor
1 2 acceptor
1 3 acceptor
1 4 donor
1 5 donor
1 6 donor
1 7 acceptor
3 12 17 18 hydrophobe
6 24 27 28 30 31 32 rings
6 7 23 25 26 29 33 rings
6 8 9 10 11 13 14 rings

> <PUBCHEM_HEAVY_ATOM_COUNT>
34

> <PUBCHEM_ATOM_DEF_STEREO_COUNT>
3

> <PUBCHEM_ATOM_UDEF_STEREO_COUNT>
0

> <PUBCHEM_BOND_DEF_STEREO_COUNT>
0

> <PUBCHEM_BOND_UDEF_STEREO_COUNT>
0

> <PUBCHEM_ISOTOPIC_ATOM_COUNT>
0

> <PUBCHEM_COMPONENT_COUNT>
1

> <PUBCHEM_CACTVS_TAUTO_COUNT>
6

> <PUBCHEM_CONFORMER_ID>
024444B600000001

> <PUBCHEM_MMFF94_ENERGY>
87.8433

> <PUBCHEM_FEATURE_SELFOVERLAP>
55.871

> <PUBCHEM_SHAPE_FINGERPRINT>
11285246 1 17536000571104108991
11524674 6 18337952273245846536
11552529 35 18196663010463373304
13165053 137 17974544949777052603
13642711 20 17696776375097089982
14674994 50 18263066872708499397
19315092 285 15254381125837457975
20764821 26 18189641395837212198
20775530 9 17687756346763823529
238918 7 18268160772762409582
3383291 50 18337940260164303967
484985 159 18040434378293366225
508706 21 18413114952851228014

> <PUBCHEM_SHAPE_MULTIPOLES>
662.17
11.2
6.76
2.83
29.6
8.35
0.21
-2.56
-2.36
-6.87
0.65
-3.19
-0.26
-0.01

> <PUBCHEM_SHAPE_SELFOVERLAP>
1381.623

> <PUBCHEM_SHAPE_VOLUME>
372.5

> <PUBCHEM_COORDINATE_TYPE>
2
5
10

$$$$
