40777141
  -OEChem-12032416183D

 67 71  0     1  0  0  0  0  0999 V2000
    3.7535   -2.3188   -2.0186 Br  0  0  0  0  0  0  0  0  0  0  0  0
   -4.5067    0.8437   -2.1545 O   0  0  0  0  0  0  0  0  0  0  0  0
   -0.4559    2.7298   -1.1543 N   0  0  2  0  0  0  0  0  0  0  0  0
   -2.7890   -0.2138   -1.0046 N   0  0  0  0  0  0  0  0  0  0  0  0
    1.7032    0.0833    1.8717 N   0  0  0  0  0  0  0  0  0  0  0  0
   -4.9664   -0.9428   -0.7446 N   0  0  0  0  0  0  0  0  0  0  0  0
    3.6513   -1.2920    1.5244 N   0  0  0  0  0  0  0  0  0  0  0  0
   -0.0172    2.3233    1.3806 C   0  0  2  0  0  0  0  0  0  0  0  0
    1.2852    2.1060    0.5615 C   0  0  2  0  0  0  0  0  0  0  0  0
   -1.4819    1.8059   -0.6026 C   0  0  2  0  0  0  0  0  0  0  0  0
   -1.1213    1.3904    0.8399 C   0  0  0  0  0  0  0  0  0  0  0  0
   -0.4758    3.7725    1.1114 C   0  0  0  0  0  0  0  0  0  0  0  0
    0.9011    2.1662   -0.9446 C   0  0  0  0  0  0  0  0  0  0  0  0
   -0.5468    4.0075   -0.4077 C   0  0  0  0  0  0  0  0  0  0  0  0
   -1.7177    0.5919   -1.5037 C   0  0  0  0  0  0  0  0  0  0  0  0
    2.1469    0.8951    0.8896 C   0  0  0  0  0  0  0  0  0  0  0  0
    3.3166    0.6824    0.1891 C   0  0  0  0  0  0  0  0  0  0  0  0
   -6.3980   -0.9722   -0.9472 C   0  0  0  0  0  0  0  0  0  0  0  0
   -4.1268   -0.0266   -1.3722 C   0  0  0  0  0  0  0  0  0  0  0  0
    4.0354   -0.4379    0.5531 C   0  0  0  0  0  0  0  0  0  0  0  0
   -6.9397   -2.4019   -0.8436 C   0  0  0  0  0  0  0  0  0  0  0  0
   -7.1125   -0.0350    0.0323 C   0  0  0  0  0  0  0  0  0  0  0  0
    2.4927   -0.9757    2.1337 C   0  0  0  0  0  0  0  0  0  0  0  0
   -6.9268   -2.9295    0.5911 C   0  0  0  0  0  0  0  0  0  0  0  0
   -7.0993   -0.5666    1.4655 C   0  0  0  0  0  0  0  0  0  0  0  0
   -7.6531   -1.9858    1.5448 C   0  0  0  0  0  0  0  0  0  0  0  0
    5.2776   -0.7719   -0.1019 C   0  0  0  0  0  0  0  0  0  0  0  0
    2.0363   -1.8955    3.2151 C   0  0  0  0  0  0  0  0  0  0  0  0
    5.3215   -1.5825   -1.2361 C   0  0  0  0  0  0  0  0  0  0  0  0
    6.4581   -0.2568    0.4334 C   0  0  0  0  0  0  0  0  0  0  0  0
    6.5460   -1.8780   -1.8352 C   0  0  0  0  0  0  0  0  0  0  0  0
    7.6828   -0.5522   -0.1657 C   0  0  0  0  0  0  0  0  0  0  0  0
    7.7267   -1.3627   -1.3001 C   0  0  0  0  0  0  0  0  0  0  0  0
    0.1401    2.1652    2.4527 H   0  0  0  0  0  0  0  0  0  0  0  0
    1.9334    2.9697    0.7771 H   0  0  0  0  0  0  0  0  0  0  0  0
   -2.4361    2.3527   -0.5678 H   0  0  0  0  0  0  0  0  0  0  0  0
   -0.7848    0.3489    0.8899 H   0  0  0  0  0  0  0  0  0  0  0  0
   -2.0125    1.4690    1.4751 H   0  0  0  0  0  0  0  0  0  0  0  0
    0.2218    4.4856    1.5660 H   0  0  0  0  0  0  0  0  0  0  0  0
   -1.4585    3.9434    1.5675 H   0  0  0  0  0  0  0  0  0  0  0  0
    1.6297    2.7925   -1.4768 H   0  0  0  0  0  0  0  0  0  0  0  0
    0.9736    1.1831   -1.4240 H   0  0  0  0  0  0  0  0  0  0  0  0
   -1.4804    4.5244   -0.6615 H   0  0  0  0  0  0  0  0  0  0  0  0
    0.2582    4.6822   -0.7263 H   0  0  0  0  0  0  0  0  0  0  0  0
   -0.8371   -0.0559   -1.5581 H   0  0  0  0  0  0  0  0  0  0  0  0
   -1.9581    0.9161   -2.5228 H   0  0  0  0  0  0  0  0  0  0  0  0
   -2.5695   -0.9568   -0.3481 H   0  0  0  0  0  0  0  0  0  0  0  0
    3.6527    1.3549   -0.5913 H   0  0  0  0  0  0  0  0  0  0  0  0
   -6.5881   -0.6086   -1.9648 H   0  0  0  0  0  0  0  0  0  0  0  0
   -6.3587   -3.0766   -1.4839 H   0  0  0  0  0  0  0  0  0  0  0  0
   -7.9718   -2.4199   -1.2162 H   0  0  0  0  0  0  0  0  0  0  0  0
   -8.1554    0.0857   -0.2879 H   0  0  0  0  0  0  0  0  0  0  0  0
   -6.6583    0.9629    0.0118 H   0  0  0  0  0  0  0  0  0  0  0  0
   -4.5566   -1.5706   -0.0602 H   0  0  0  0  0  0  0  0  0  0  0  0
   -5.8943   -3.0717    0.9309 H   0  0  0  0  0  0  0  0  0  0  0  0
   -7.4041   -3.9159    0.6203 H   0  0  0  0  0  0  0  0  0  0  0  0
   -7.6927    0.0950    2.1069 H   0  0  0  0  0  0  0  0  0  0  0  0
   -6.0747   -0.5509    1.8566 H   0  0  0  0  0  0  0  0  0  0  0  0
   -8.7224   -1.9733    1.3000 H   0  0  0  0  0  0  0  0  0  0  0  0
   -7.5657   -2.3594    2.5712 H   0  0  0  0  0  0  0  0  0  0  0  0
    2.5240   -1.6286    4.1573 H   0  0  0  0  0  0  0  0  0  0  0  0
    0.9521   -1.8316    3.3516 H   0  0  0  0  0  0  0  0  0  0  0  0
    2.2868   -2.9324    2.9703 H   0  0  0  0  0  0  0  0  0  0  0  0
    6.4447    0.3767    1.3175 H   0  0  0  0  0  0  0  0  0  0  0  0
    6.6014   -2.5077   -2.7196 H   0  0  0  0  0  0  0  0  0  0  0  0
    8.6022   -0.1513    0.2509 H   0  0  0  0  0  0  0  0  0  0  0  0
    8.6802   -1.5927   -1.7664 H   0  0  0  0  0  0  0  0  0  0  0  0
  1 29  1  0  0  0  0
  2 19  2  0  0  0  0
  3 10  1  0  0  0  0
  3 13  1  0  0  0  0
  3 14  1  0  0  0  0
  4 15  1  0  0  0  0
  4 19  1  0  0  0  0
  4 47  1  0  0  0  0
  5 16  2  0  0  0  0
  5 23  1  0  0  0  0
  6 18  1  0  0  0  0
  6 19  1  0  0  0  0
  6 54  1  0  0  0  0
  7 20  1  0  0  0  0
  7 23  2  0  0  0  0
  8  9  1  0  0  0  0
  8 11  1  0  0  0  0
  8 12  1  0  0  0  0
  8 34  1  0  0  0  0
  9 13  1  0  0  0  0
  9 16  1  0  0  0  0
  9 35  1  0  0  0  0
 10 11  1  0  0  0  0
 10 15  1  0  0  0  0
 10 36  1  0  0  0  0
 11 37  1  0  0  0  0
 11 38  1  0  0  0  0
 12 14  1  0  0  0  0
 12 39  1  0  0  0  0
 12 40  1  0  0  0  0
 13 41  1  0  0  0  0
 13 42  1  0  0  0  0
 14 43  1  0  0  0  0
 14 44  1  0  0  0  0
 15 45  1  0  0  0  0
 15 46  1  0  0  0  0
 16 17  1  0  0  0  0
 17 20  2  0  0  0  0
 17 48  1  0  0  0  0
 18 21  1  0  0  0  0
 18 22  1  0  0  0  0
 18 49  1  0  0  0  0
 20 27  1  0  0  0  0
 21 24  1  0  0  0  0
 21 50  1  0  0  0  0
 21 51  1  0  0  0  0
 22 25  1  0  0  0  0
 22 52  1  0  0  0  0
 22 53  1  0  0  0  0
 23 28  1  0  0  0  0
 24 26  1  0  0  0  0
 24 55  1  0  0  0  0
 24 56  1  0  0  0  0
 25 26  1  0  0  0  0
 25 57  1  0  0  0  0
 25 58  1  0  0  0  0
 26 59  1  0  0  0  0
 26 60  1  0  0  0  0
 27 29  1  0  0  0  0
 27 30  2  0  0  0  0
 28 61  1  0  0  0  0
 28 62  1  0  0  0  0
 28 63  1  0  0  0  0
 29 31  2  0  0  0  0
 30 32  1  0  0  0  0
 30 64  1  0  0  0  0
 31 33  1  0  0  0  0
 31 65  1  0  0  0  0
 32 33  2  0  0  0  0
 32 66  1  0  0  0  0
 33 67  1  0  0  0  0
M  END
> <PUBCHEM_COMPOUND_CID>
40777141

> <PUBCHEM_CONFORMER_RMSD>
1.2

> <PUBCHEM_CONFORMER_DIVERSEORDER>
1
137
33
95
87
106
62
28
97
89
102
127
79
105
143
132
126
17
136
100
69
128
109
91
108
112
74
68
35
133
61
48
52
85
64
49
11
30
46
24
129
75
93
60
124
65
7
119
86
22
82
113
96
25
118
121
23
13
14
115
53
117
59
110
29
5
57
39
42
135
98
56
107
84
45
90
2
94
88
44
78
134
114
131
26
66
70
92
12
67
81
50
19
123
6
21
80
63
116
138
103
47
99
77
55
130
18
142
101
40
58
73
72
31
8
54
32
140
125
37
139
43
16
83
141
71
111
122
27
3
15
38
9
76
104
41
34
120
36
4
10
20
51

> <PUBCHEM_MMFF94_PARTIAL_CHARGES>
31
1 -0.11
10 0.27
13 0.27
14 0.27
15 0.3
16 0.17
17 -0.15
18 0.3
19 0.69
2 -0.57
20 0.31
23 0.48
28 0.14
29 0.11
3 -0.81
30 -0.15
31 -0.15
32 -0.15
33 -0.15
4 -0.73
47 0.37
48 0.15
5 -0.62
54 0.37
6 -0.73
64 0.15
65 0.15
66 0.15
67 0.15
7 -0.62
9 0.14

> <PUBCHEM_EFFECTIVE_ROTOR_COUNT>
9.4

> <PUBCHEM_PHARMACOPHORE_FEATURES>
11
1 1 hydrophobe
1 2 acceptor
1 3 cation
1 4 donor
1 5 acceptor
1 6 donor
3 5 7 23 cation
6 18 21 22 24 25 26 rings
6 27 29 30 31 32 33 rings
6 5 7 16 17 20 23 rings
8 3 8 9 10 11 12 13 14 rings

> <PUBCHEM_HEAVY_ATOM_COUNT>
33

> <PUBCHEM_ATOM_DEF_STEREO_COUNT>
3

> <PUBCHEM_ATOM_UDEF_STEREO_COUNT>
0

> <PUBCHEM_BOND_DEF_STEREO_COUNT>
0

> <PUBCHEM_BOND_UDEF_STEREO_COUNT>
0

> <PUBCHEM_ISOTOPIC_ATOM_COUNT>
0

> <PUBCHEM_COMPONENT_COUNT>
1

> <PUBCHEM_CACTVS_TAUTO_COUNT>
3

> <PUBCHEM_CONFORMER_ID>
026E35B500000001

> <PUBCHEM_MMFF94_ENERGY>
76.8745

> <PUBCHEM_FEATURE_SELFOVERLAP>
55.869

> <PUBCHEM_SHAPE_FINGERPRINT>
10169797 241 18339906195634015960
10764073 3 15195566792973856737
11103572 155 18127418843395151147
11374522 165 11959187246156190651
11399939 17 17838050769209297671
11672396 43 17387115495861438034
117089 54 18342183271378490263
12107183 9 13829840335848270078
12422481 6 17632578241405260053
12539747 363 16845572020157072808
12633257 1 13901607667939624028
12677640 9 15984241072214065495
12778500 126 15841556266576140195
13150687 139 12107780783530009792
13383661 66 18342182145701419330
13673619 4 18060414682134260368
13690498 29 18040707066099045845
14040221 126 18116719521748222170
14251764 30 18412825772481349599
14767858 380 17458345217329521250
14950920 106 14404315395911288716
15238133 3 10159403371693715330
15289351 153 10665213866214354676
15320295 40 14129329694721976214
15350500 185 8430316805680178455
15669420 48 15430043162529755717
15721738 202 18060418011124032264
19246450 95 14548744954535190735
208703 8 18343303686996529209
21344244 181 18411703192980463466
21403212 168 10952054442177841204
21716022 299 18262531410293520452
21792965 78 17969510299852142250
22149856 69 17275107202857632002
25269216 80 18270696285763530404
2747138 104 18342737403842550068
2748736 6 10663818594411971787
2838139 119 12685092562328258822
393628 179 8286199418381185423
404807 78 16806177677769203955
437815 12 18411703214153918067
44880168 125 17846204562535660079
46194498 28 17023454374020916957
4756326 101 12757427315217698790
484989 97 17386579088489121475
54728670 133 13326018699734849202
57366028 249 16845282901103978256
57527585 21 15721386127287860140
5912855 24 18119525440544511665
6058803 2 17245536782189397952
6371009 1 10087643723452997603
6679774 75 16682883559441835953
70251023 43 18413951681126222968
999808 66 18343865511362576719

> <PUBCHEM_SHAPE_MULTIPOLES>
654.29
22.44
3.75
2.3
16.56
2.98
-1
-23.84
2.63
1.96
0.26
-0.51
-1.03
2.15

> <PUBCHEM_SHAPE_SELFOVERLAP>
1385.812

> <PUBCHEM_SHAPE_VOLUME>
374.2

> <PUBCHEM_COORDINATE_TYPE>
2
5
10

$$$$
