75536995
  -OEChem-12032416333D

 50 53  0     1  0  0  0  0  0999 V2000
    3.2007   -1.1865   -0.4842 S   0  0  0  0  0  0  0  0  0  0  0  0
   -5.2012    4.2366    0.6164 F   0  0  0  0  0  0  0  0  0  0  0  0
   -3.0166   -2.3961    1.6731 O   0  0  0  0  0  0  0  0  0  0  0  0
    3.3797   -0.8967   -1.8893 O   0  0  0  0  0  0  0  0  0  0  0  0
    4.1329   -2.0140    0.2484 O   0  0  0  0  0  0  0  0  0  0  0  0
   -1.0628   -2.2971    0.3720 N   0  0  0  0  0  0  0  0  0  0  0  0
    1.6178   -1.8000   -0.2473 N   0  0  2  0  0  0  0  0  0  0  0  0
   -2.9842   -1.5643   -0.5329 N   0  0  0  0  0  0  0  0  0  0  0  0
   -0.7186   -1.9735   -0.9993 C   0  0  2  0  0  0  0  0  0  0  0  0
    0.5433   -1.1190   -1.0441 C   0  0  0  0  0  0  0  0  0  0  0  0
   -1.9718   -1.2856   -1.5364 C   0  0  0  0  0  0  0  0  0  0  0  0
   -0.0505   -2.8399    1.2566 C   0  0  0  0  0  0  0  0  0  0  0  0
    1.2143   -1.9902    1.1861 C   0  0  0  0  0  0  0  0  0  0  0  0
   -2.4288   -2.1238    0.6346 C   0  0  0  0  0  0  0  0  0  0  0  0
   -4.3648   -1.1714   -0.7084 C   0  0  0  0  0  0  0  0  0  0  0  0
    3.0376    0.3548    0.3787 C   0  0  0  0  0  0  0  0  0  0  0  0
   -4.5880    0.2707   -0.3553 C   0  0  0  0  0  0  0  0  0  0  0  0
    4.3510    1.0687    0.2891 C   0  0  0  0  0  0  0  0  0  0  0  0
   -4.9264    0.6244    0.9509 C   0  0  0  0  0  0  0  0  0  0  0  0
   -4.4568    1.2568   -1.3331 C   0  0  0  0  0  0  0  0  0  0  0  0
    4.7442    1.6588   -0.9121 C   0  0  0  0  0  0  0  0  0  0  0  0
    5.1811    1.1440    1.4075 C   0  0  0  0  0  0  0  0  0  0  0  0
   -5.1339    1.9640    1.2793 C   0  0  0  0  0  0  0  0  0  0  0  0
   -4.6642    2.5964   -1.0048 C   0  0  0  0  0  0  0  0  0  0  0  0
    5.9675    2.3240   -0.9949 C   0  0  0  0  0  0  0  0  0  0  0  0
    6.4042    1.8094    1.3248 C   0  0  0  0  0  0  0  0  0  0  0  0
   -5.0028    2.9501    0.3013 C   0  0  0  0  0  0  0  0  0  0  0  0
    6.7974    2.3993    0.1235 C   0  0  0  0  0  0  0  0  0  0  0  0
   -0.5542   -2.9267   -1.5180 H   0  0  0  0  0  0  0  0  0  0  0  0
    0.8524   -0.9983   -2.0869 H   0  0  0  0  0  0  0  0  0  0  0  0
    0.3485   -0.1280   -0.6189 H   0  0  0  0  0  0  0  0  0  0  0  0
   -1.8489   -0.2015   -1.6217 H   0  0  0  0  0  0  0  0  0  0  0  0
   -2.2806   -1.6953   -2.5029 H   0  0  0  0  0  0  0  0  0  0  0  0
    0.1550   -3.8623    0.9197 H   0  0  0  0  0  0  0  0  0  0  0  0
   -0.4400   -2.8896    2.2781 H   0  0  0  0  0  0  0  0  0  0  0  0
    2.0116   -2.4872    1.7469 H   0  0  0  0  0  0  0  0  0  0  0  0
    1.0066   -1.0183    1.6461 H   0  0  0  0  0  0  0  0  0  0  0  0
   -4.9897   -1.8045   -0.0668 H   0  0  0  0  0  0  0  0  0  0  0  0
   -4.6633   -1.3782   -1.7427 H   0  0  0  0  0  0  0  0  0  0  0  0
    2.2524    0.9593   -0.0820 H   0  0  0  0  0  0  0  0  0  0  0  0
    2.7858    0.1657    1.4241 H   0  0  0  0  0  0  0  0  0  0  0  0
   -5.0313   -0.1335    1.7225 H   0  0  0  0  0  0  0  0  0  0  0  0
   -4.1941    0.9943   -2.3544 H   0  0  0  0  0  0  0  0  0  0  0  0
    4.1025    1.6292   -1.7882 H   0  0  0  0  0  0  0  0  0  0  0  0
    4.8892    0.6875    2.3495 H   0  0  0  0  0  0  0  0  0  0  0  0
   -5.3971    2.2398    2.2961 H   0  0  0  0  0  0  0  0  0  0  0  0
   -4.5621    3.3645   -1.7658 H   0  0  0  0  0  0  0  0  0  0  0  0
    6.2716    2.7875   -1.9289 H   0  0  0  0  0  0  0  0  0  0  0  0
    7.0507    1.8679    2.1956 H   0  0  0  0  0  0  0  0  0  0  0  0
    7.7494    2.9181    0.0594 H   0  0  0  0  0  0  0  0  0  0  0  0
  1  4  2  0  0  0  0
  1  5  2  0  0  0  0
  1  7  1  0  0  0  0
  1 16  1  0  0  0  0
  2 27  1  0  0  0  0
  3 14  2  0  0  0  0
  6  9  1  0  0  0  0
  6 12  1  0  0  0  0
  6 14  1  0  0  0  0
  7 10  1  0  0  0  0
  7 13  1  0  0  0  0
  8 11  1  0  0  0  0
  8 14  1  0  0  0  0
  8 15  1  0  0  0  0
  9 10  1  0  0  0  0
  9 11  1  0  0  0  0
  9 29  1  0  0  0  0
 10 30  1  0  0  0  0
 10 31  1  0  0  0  0
 11 32  1  0  0  0  0
 11 33  1  0  0  0  0
 12 13  1  0  0  0  0
 12 34  1  0  0  0  0
 12 35  1  0  0  0  0
 13 36  1  0  0  0  0
 13 37  1  0  0  0  0
 15 17  1  0  0  0  0
 15 38  1  0  0  0  0
 15 39  1  0  0  0  0
 16 18  1  0  0  0  0
 16 40  1  0  0  0  0
 16 41  1  0  0  0  0
 17 19  2  0  0  0  0
 17 20  1  0  0  0  0
 18 21  2  0  0  0  0
 18 22  1  0  0  0  0
 19 23  1  0  0  0  0
 19 42  1  0  0  0  0
 20 24  2  0  0  0  0
 20 43  1  0  0  0  0
 21 25  1  0  0  0  0
 21 44  1  0  0  0  0
 22 26  2  0  0  0  0
 22 45  1  0  0  0  0
 23 27  2  0  0  0  0
 23 46  1  0  0  0  0
 24 27  1  0  0  0  0
 24 47  1  0  0  0  0
 25 28  2  0  0  0  0
 25 48  1  0  0  0  0
 26 28  1  0  0  0  0
 26 49  1  0  0  0  0
 28 50  1  0  0  0  0
M  END
> <PUBCHEM_COMPOUND_CID>
75536995

> <PUBCHEM_CONFORMER_RMSD>
0.8

> <PUBCHEM_CONFORMER_DIVERSEORDER>
1
174
26
145
101
112
106
136
14
67
181
83
168
177
74
64
193
6
102
82
175
152
113
194
12
41
69
173
155
91
28
163
153
86
189
197
49
114
169
170
111
149
62
7
96
79
70
105
85
133
186
21
117
97
116
146
38
47
42
120
66
72
140
131
88
104
137
167
190
176
53
19
95
89
36
17
162
59
33
71
185
187
24
164
48
23
180
94
115
128
188
65
122
125
127
78
166
10
144
171
158
37
132
191
135
148
183
60
31
87
156
147
108
121
9
154
99
100
50
179
56
22
139
8
110
84
157
141
92
29
161
184
123
63
172
150
130
98
103
124
107
57
196
2
142
40
143
195
58
39
35
81
109
160
61
51
80
13
34
43
182
75
45
159
93
118
18
4
32
68
138
151
30
134
119
52
90
55
25
192
11
77
76
54
5
126
44
165
73
129
178
20
15
27
46
3
16

> <PUBCHEM_MMFF94_PARTIAL_CHARGES>
37
1 1.33
10 0.36
11 0.3
12 0.3
13 0.36
14 0.69
15 0.44
16 0.25
17 -0.14
18 -0.14
19 -0.15
2 -0.19
20 -0.15
21 -0.15
22 -0.15
23 -0.15
24 -0.15
25 -0.15
26 -0.15
27 0.19
28 -0.15
3 -0.57
4 -0.65
42 0.15
43 0.15
44 0.15
45 0.15
46 0.15
47 0.15
48 0.15
49 0.15
5 -0.65
50 0.15
6 -0.66
7 -0.85
8 -0.66
9 0.3

> <PUBCHEM_EFFECTIVE_ROTOR_COUNT>
6.2

> <PUBCHEM_PHARMACOPHORE_FEATURES>
7
1 3 acceptor
1 4 acceptor
1 5 acceptor
5 6 8 9 11 14 rings
6 17 19 20 23 24 27 rings
6 18 21 22 25 26 28 rings
6 6 7 9 10 12 13 rings

> <PUBCHEM_HEAVY_ATOM_COUNT>
28

> <PUBCHEM_ATOM_DEF_STEREO_COUNT>
1

> <PUBCHEM_ATOM_UDEF_STEREO_COUNT>
0

> <PUBCHEM_BOND_DEF_STEREO_COUNT>
0

> <PUBCHEM_BOND_UDEF_STEREO_COUNT>
0

> <PUBCHEM_ISOTOPIC_ATOM_COUNT>
0

> <PUBCHEM_COMPONENT_COUNT>
1

> <PUBCHEM_CACTVS_TAUTO_COUNT>
1

> <PUBCHEM_CONFORMER_ID>
04809A6300000001

> <PUBCHEM_MMFF94_ENERGY>
62.3608

> <PUBCHEM_FEATURE_SELFOVERLAP>
35.638

> <PUBCHEM_SHAPE_FINGERPRINT>
100830 2 18408327670154454056
11135609 201 18410855490704954771
11399510 152 16954246491243159025
11477941 20 17844510305759657965
11720765 8 17625831461468248046
12107183 9 18041823070665320538
12390115 104 18260553363305007910
12422481 6 17095796638279733278
12633257 1 15357986671760664827
13627167 48 17987535731082411888
14211702 104 8646763391937931348
14251764 38 18339644541810550013
14251764 75 18126291835825064257
14347329 18 18411977001012809072
14466204 15 18336260236472447428
14739800 52 18338220622512331210
14848178 5 8790588292059285167
14950920 106 14418141707633981469
14951699 99 18333739030777420004
15163728 17 18131637759710600471
15604295 49 17983010344257671576
16112460 7 18338800009559171680
19438510 23 18411138013426526865
20691028 202 18338803295546873481
20982279 24 14853259098934380112
21033648 29 17458618953118160391
21302155 148 18410856555382369357
21307412 95 9727634974019924929
21401589 2 18409735054133402539
22122407 14 18044098075897349928
22956985 138 16745945559633780499
23379529 103 10663233654162386149
23559900 14 17844811386698423158
23569914 152 17126788431230809236
2748736 6 18411128130586011120
2838139 119 18202273732489686704
316301 35 8790880774820910916
3525247 154 17917706950647519456
3680242 22 18040708165626549176
4144715 1 18408892858107486346
4280585 95 10519992538806498277
44249763 50 17488448845049847236
4487111 67 18268708312189518257
474113 269 12685386197127999105
484985 159 8069763892227923047
5104073 3 17894628162787975666
636775 72 18196929101463725000
7288768 16 18113337522410891827
7808743 9 18409725192413847507
7970288 3 9295282833306181881
8863177 126 8358258142406046012
999808 66 12901810715500769832

> <PUBCHEM_SHAPE_MULTIPOLES>
540.25
17.2
4.21
1.55
11.91
1.81
-0.01
19.41
1.75
-3.45
0.83
-0.03
-0.17
-0.11

> <PUBCHEM_SHAPE_SELFOVERLAP>
1147.399

> <PUBCHEM_SHAPE_VOLUME>
304.1

> <PUBCHEM_COORDINATE_TYPE>
2
5
10

$$$$
