51137131
  -OEChem-12032416243D

 48 51  0     1  0  0  0  0  0999 V2000
   -7.8917    2.7702    0.7665 Cl  0  0  0  0  0  0  0  0  0  0  0  0
    6.3922    0.8427   -0.6053 S   0  0  0  0  0  0  0  0  0  0  0  0
    1.4491   -2.0233    0.5489 O   0  0  0  0  0  0  0  0  0  0  0  0
    7.4237   -0.0801   -1.0559 O   0  0  0  0  0  0  0  0  0  0  0  0
    6.0156    1.9734   -1.4400 O   0  0  0  0  0  0  0  0  0  0  0  0
   -2.9772   -0.5255   -0.1401 N   0  0  1  0  0  0  0  0  0  0  0  0
    1.2220    0.1731    0.0381 N   0  0  0  0  0  0  0  0  0  0  0  0
   -0.8487   -1.2116    0.5657 C   0  0  1  0  0  0  0  0  0  0  0  0
   -1.5096   -0.3674    1.6693 C   0  0  0  0  0  0  0  0  0  0  0  0
   -1.6817   -0.9282   -0.6916 C   0  0  0  0  0  0  0  0  0  0  0  0
   -2.6523    0.3630    0.9757 C   0  0  0  0  0  0  0  0  0  0  0  0
    0.6267   -0.9526    0.3658 C   0  0  0  0  0  0  0  0  0  0  0  0
   -3.8269    0.1177   -1.1313 C   0  0  0  0  0  0  0  0  0  0  0  0
   -5.2715    0.1313   -0.7073 C   0  0  0  0  0  0  0  0  0  0  0  0
    2.5513   -0.1719   -0.0015 C   0  0  0  0  0  0  0  0  0  0  0  0
    2.6942   -1.5159    0.3107 C   0  0  0  0  0  0  0  0  0  0  0  0
    3.6976    0.5823   -0.2904 C   0  0  0  0  0  0  0  0  0  0  0  0
    4.9406   -0.0659   -0.2487 C   0  0  0  0  0  0  0  0  0  0  0  0
   -5.8455    1.3071   -0.2237 C   0  0  0  0  0  0  0  0  0  0  0  0
   -6.0362   -1.0317   -0.7989 C   0  0  0  0  0  0  0  0  0  0  0  0
    3.9067   -2.1921    0.3620 C   0  0  0  0  0  0  0  0  0  0  0  0
    5.0404   -1.4255    0.0714 C   0  0  0  0  0  0  0  0  0  0  0  0
    6.9134    1.4746    0.9726 C   0  0  0  0  0  0  0  0  0  0  0  0
   -7.1842    1.3200    0.1682 C   0  0  0  0  0  0  0  0  0  0  0  0
   -7.3748   -1.0190   -0.4069 C   0  0  0  0  0  0  0  0  0  0  0  0
   -7.9489    0.1569    0.0765 C   0  0  0  0  0  0  0  0  0  0  0  0
    8.1758    2.2984    0.8506 C   0  0  0  0  0  0  0  0  0  0  0  0
   -0.9755   -2.2693    0.8376 H   0  0  0  0  0  0  0  0  0  0  0  0
   -1.9047   -1.0318    2.4479 H   0  0  0  0  0  0  0  0  0  0  0  0
   -0.8208    0.3354    2.1501 H   0  0  0  0  0  0  0  0  0  0  0  0
   -1.7678   -1.8210   -1.3204 H   0  0  0  0  0  0  0  0  0  0  0  0
   -1.2356   -0.1253   -1.2937 H   0  0  0  0  0  0  0  0  0  0  0  0
   -2.3051    1.3454    0.6305 H   0  0  0  0  0  0  0  0  0  0  0  0
   -3.4955    0.5091    1.6580 H   0  0  0  0  0  0  0  0  0  0  0  0
   -3.4800    1.1300   -1.3793 H   0  0  0  0  0  0  0  0  0  0  0  0
   -3.7813   -0.4396   -2.0779 H   0  0  0  0  0  0  0  0  0  0  0  0
    3.6074    1.6363   -0.5301 H   0  0  0  0  0  0  0  0  0  0  0  0
    3.9731   -3.2435    0.6122 H   0  0  0  0  0  0  0  0  0  0  0  0
   -5.2478    2.2129   -0.1512 H   0  0  0  0  0  0  0  0  0  0  0  0
   -5.6006   -1.9541   -1.1741 H   0  0  0  0  0  0  0  0  0  0  0  0
    6.0103   -1.9162    0.1077 H   0  0  0  0  0  0  0  0  0  0  0  0
    7.0797    0.6204    1.6357 H   0  0  0  0  0  0  0  0  0  0  0  0
    6.0982    2.0852    1.3724 H   0  0  0  0  0  0  0  0  0  0  0  0
   -7.9701   -1.9246   -0.4781 H   0  0  0  0  0  0  0  0  0  0  0  0
   -8.9931    0.1519    0.3784 H   0  0  0  0  0  0  0  0  0  0  0  0
    8.4774    2.6797    1.8310 H   0  0  0  0  0  0  0  0  0  0  0  0
    8.0276    3.1539    0.1838 H   0  0  0  0  0  0  0  0  0  0  0  0
    9.0014    1.7019    0.4493 H   0  0  0  0  0  0  0  0  0  0  0  0
  1 24  1  0  0  0  0
  2  4  2  0  0  0  0
  2  5  2  0  0  0  0
  2 18  1  0  0  0  0
  2 23  1  0  0  0  0
  3 12  1  0  0  0  0
  3 16  1  0  0  0  0
  6 10  1  0  0  0  0
  6 11  1  0  0  0  0
  6 13  1  0  0  0  0
  7 12  2  0  0  0  0
  7 15  1  0  0  0  0
  8  9  1  0  0  0  0
  8 10  1  0  0  0  0
  8 12  1  0  0  0  0
  8 28  1  0  0  0  0
  9 11  1  0  0  0  0
  9 29  1  0  0  0  0
  9 30  1  0  0  0  0
 10 31  1  0  0  0  0
 10 32  1  0  0  0  0
 11 33  1  0  0  0  0
 11 34  1  0  0  0  0
 13 14  1  0  0  0  0
 13 35  1  0  0  0  0
 13 36  1  0  0  0  0
 14 19  2  0  0  0  0
 14 20  1  0  0  0  0
 15 16  2  0  0  0  0
 15 17  1  0  0  0  0
 16 21  1  0  0  0  0
 17 18  2  0  0  0  0
 17 37  1  0  0  0  0
 18 22  1  0  0  0  0
 19 24  1  0  0  0  0
 19 39  1  0  0  0  0
 20 25  2  0  0  0  0
 20 40  1  0  0  0  0
 21 22  2  0  0  0  0
 21 38  1  0  0  0  0
 22 41  1  0  0  0  0
 23 27  1  0  0  0  0
 23 42  1  0  0  0  0
 23 43  1  0  0  0  0
 24 26  2  0  0  0  0
 25 26  1  0  0  0  0
 25 44  1  0  0  0  0
 26 45  1  0  0  0  0
 27 46  1  0  0  0  0
 27 47  1  0  0  0  0
 27 48  1  0  0  0  0
M  END
> <PUBCHEM_COMPOUND_CID>
51137131

> <PUBCHEM_CONFORMER_RMSD>
1

> <PUBCHEM_CONFORMER_DIVERSEORDER>
1
31
112
121
55
43
64
84
39
35
125
95
107
71
13
120
61
109
103
117
98
101
33
70
65
4
88
119
20
127
122
18
72
76
59
8
102
36
69
80
89
47
118
116
50
100
97
90
56
78
81
114
38
68
51
11
57
27
29
52
34
104
85
91
73
79
45
75
77
111
66
74
42
105
37
10
110
99
12
86
58
87
113
19
93
124
2
92
115
126
7
44
14
3
48
6
63
25
83
22
49
15
106
108
9
21
123
41
53
30
94
128
67
62
23
60
82
40
28
5
24
17
54
96
16
32
46
26

> <PUBCHEM_MMFF94_PARTIAL_CHARGES>
32
1 -0.18
10 0.27
11 0.27
12 0.3
13 0.41
14 -0.14
15 0.23
16 0.14
17 -0.15
18 -0.01
19 -0.15
2 1.2
20 -0.15
21 -0.15
22 -0.15
23 0.11
24 0.18
25 -0.15
26 -0.15
3 -0.28
37 0.15
38 0.15
39 0.15
4 -0.65
40 0.15
41 0.15
44 0.15
45 0.15
5 -0.65
6 -0.81
7 -0.57
8 0.18

> <PUBCHEM_EFFECTIVE_ROTOR_COUNT>
6

> <PUBCHEM_PHARMACOPHORE_FEATURES>
7
1 4 acceptor
1 5 acceptor
1 6 cation
5 3 7 12 15 16 rings
5 6 8 9 10 11 rings
6 14 19 20 24 25 26 rings
6 15 16 17 18 21 22 rings

> <PUBCHEM_HEAVY_ATOM_COUNT>
27

> <PUBCHEM_ATOM_DEF_STEREO_COUNT>
1

> <PUBCHEM_ATOM_UDEF_STEREO_COUNT>
0

> <PUBCHEM_BOND_DEF_STEREO_COUNT>
0

> <PUBCHEM_BOND_UDEF_STEREO_COUNT>
0

> <PUBCHEM_ISOTOPIC_ATOM_COUNT>
0

> <PUBCHEM_COMPONENT_COUNT>
1

> <PUBCHEM_CACTVS_TAUTO_COUNT>
1

> <PUBCHEM_CONFORMER_ID>
030C4A6B00000001

> <PUBCHEM_MMFF94_ENERGY>
43.8597

> <PUBCHEM_FEATURE_SELFOVERLAP>
35.658

> <PUBCHEM_SHAPE_FINGERPRINT>
10 15 15791452642948063772
10299344 5 18413107247853790231
10369192 42 18272087185078351999
10411042 1 17756700837961263154
10595046 47 18409727318997697859
11135609 187 18343301461734354467
11181472 205 17631463262967001777
11315181 36 18408602553631855111
11646440 116 16588031182283927213
12082328 90 18342737421349571231
12236239 1 18342454812301137799
12539745 222 12541235764254937494
12539765 74 18201726119448372415
12592606 108 8574712407648930520
13533116 47 16805878468751046250
14251764 18 17967811652157566823
14461889 52 17676490578827381090
14849402 71 18261398879579242189
14856354 85 17989204863950093407
14933364 13 18411136918642467127
15183329 4 17489870414911070801
15301273 46 11530472329462734136
15690457 1 8142076551472963865
1577012 14 18341327817166857911
16989713 51 17059478769563449575
16994733 274 18334856078941516065
18335252 98 18334018319922082859
18643901 69 12391522995992466464
195137 175 18202570557917195801
20156587 128 15769232596042624696
20157964 124 18260266335341778250
2026 5 14116978820509853684
21033648 29 17968375766796283216
21095123 293 18058738992692634857
21130935 74 18260266313709128587
21150785 3 17274823579980372726
21298829 104 18410294713641299532
21521721 280 18113621166514917867
21795232 338 18339930407441394923
22224240 67 16950281814893894635
23081809 10 18270951380829750735
23536379 177 18411979123206642155
23559900 14 15697423546470019650
23576562 1 17059190688605555733
24771293 8 18186519920901690116
25025965 108 11963972428899865305
2747138 104 16588319237509302557
29717793 49 18060422370268255678
3004659 81 16917344848740324227
335352 9 18333737902003121278
34797466 226 16056878065993012786
3633792 109 18201443541413827330
3711267 37 18272943704421183249
4073 2 18186806885480049403
4093350 32 18272089371011386254
4098825 35 18337671919397751865
4340502 62 15936406732811063482
445580 126 18260258660314036440
445580 37 17417817202040634377
5104073 3 15647883796509192965
5265222 85 18202280342719409359
5470011 282 15985108544102288900
5758199 1 18187365420053537579
5937810 71 17632304449961934633
59682541 35 16950574277156441281
59682541 52 17560812013769595118

> <PUBCHEM_SHAPE_MULTIPOLES>
533.8
27.33
2.2
1.1
7.29
0.8
-0.04
16.72
2.16
-0.86
-0.41
-0.34
0.17
-0.97

> <PUBCHEM_SHAPE_SELFOVERLAP>
1134.279

> <PUBCHEM_SHAPE_VOLUME>
301.9

> <PUBCHEM_COORDINATE_TYPE>
2
5
10

$$$$
