26744680
  -OEChem-12032416183D

 64 67  0     1  0  0  0  0  0999 V2000
   -3.9383    0.7933    0.8843 O   0  0  0  0  0  0  0  0  0  0  0  0
   -5.7642    2.3571   -0.9798 O   0  0  0  0  0  0  0  0  0  0  0  0
   -6.1168   -0.2535   -1.7724 O   0  0  0  0  0  0  0  0  0  0  0  0
   -1.7160    2.6914    1.5277 O   0  0  0  0  0  0  0  0  0  0  0  0
   -2.1798   -1.2308    2.2242 O   0  0  0  0  0  0  0  0  0  0  0  0
    2.6568   -3.4724   -1.1858 O   0  0  0  0  0  0  0  0  0  0  0  0
    0.1280    1.9843    0.3032 N   0  0  0  0  0  0  0  0  0  0  0  0
    2.9745    1.5328    0.0316 N   0  0  0  0  0  0  0  0  0  0  0  0
   -3.3384   -1.9267    0.3383 N   0  0  0  0  0  0  0  0  0  0  0  0
    4.9981    1.7656   -1.1633 N   0  0  0  0  0  0  0  0  0  0  0  0
   -3.6113    1.7906   -0.1104 C   0  0  2  0  0  0  0  0  0  0  0  0
   -4.5938    1.5898   -1.2590 C   0  0  1  0  0  0  0  0  0  0  0  0
   -4.8992    0.1097   -1.1575 C   0  0  1  0  0  0  0  0  0  0  0  0
   -4.9385   -0.0907    0.3482 C   0  0  1  0  0  0  0  0  0  0  0  0
   -2.1609    1.5794   -0.5227 C   0  0  0  0  0  0  0  0  0  0  0  0
   -4.6409   -1.5174    0.7737 C   0  0  0  0  0  0  0  0  0  0  0  0
   -1.2396    2.1369    0.5344 C   0  0  0  0  0  0  0  0  0  0  0  0
    1.0850    2.5018    1.2776 C   0  0  0  0  0  0  0  0  0  0  0  0
    0.6919    1.3159   -0.8718 C   0  0  0  0  0  0  0  0  0  0  0  0
    2.3461    1.6436    1.3510 C   0  0  0  0  0  0  0  0  0  0  0  0
    2.1359    1.7317   -1.1531 C   0  0  0  0  0  0  0  0  0  0  0  0
    4.3391    1.2807   -0.0872 C   0  0  0  0  0  0  0  0  0  0  0  0
   -2.1935   -1.7481    1.1103 C   0  0  0  0  0  0  0  0  0  0  0  0
    4.9368    0.5394    0.9193 C   0  0  0  0  0  0  0  0  0  0  0  0
   -0.9152   -2.2028    0.5054 C   0  0  0  0  0  0  0  0  0  0  0  0
    6.2987    0.2794    0.8147 C   0  0  0  0  0  0  0  0  0  0  0  0
    6.3205    1.4927   -1.2309 C   0  0  0  0  0  0  0  0  0  0  0  0
    0.1432   -2.5961    1.3245 C   0  0  0  0  0  0  0  0  0  0  0  0
   -0.7732   -2.2362   -0.8819 C   0  0  0  0  0  0  0  0  0  0  0  0
    7.0111    0.7617   -0.2778 C   0  0  0  0  0  0  0  0  0  0  0  0
    1.3434   -3.0233    0.7564 C   0  0  0  0  0  0  0  0  0  0  0  0
    0.4271   -2.6632   -1.4501 C   0  0  0  0  0  0  0  0  0  0  0  0
    1.4854   -3.0568   -0.6310 C   0  0  0  0  0  0  0  0  0  0  0  0
    3.6977   -3.8596   -0.2900 C   0  0  0  0  0  0  0  0  0  0  0  0
   -3.7641    2.7748    0.3473 H   0  0  0  0  0  0  0  0  0  0  0  0
   -4.2236    1.8910   -2.2430 H   0  0  0  0  0  0  0  0  0  0  0  0
   -4.0887   -0.4582   -1.6273 H   0  0  0  0  0  0  0  0  0  0  0  0
   -5.9115    0.2058    0.7594 H   0  0  0  0  0  0  0  0  0  0  0  0
   -1.9709    2.1309   -1.4500 H   0  0  0  0  0  0  0  0  0  0  0  0
   -1.9373    0.5221   -0.6762 H   0  0  0  0  0  0  0  0  0  0  0  0
   -5.3716   -2.2128    0.3486 H   0  0  0  0  0  0  0  0  0  0  0  0
   -4.6833   -1.5967    1.8656 H   0  0  0  0  0  0  0  0  0  0  0  0
    0.6175    2.5674    2.2659 H   0  0  0  0  0  0  0  0  0  0  0  0
    1.3342    3.5234    0.9655 H   0  0  0  0  0  0  0  0  0  0  0  0
    0.0789    1.5072   -1.7560 H   0  0  0  0  0  0  0  0  0  0  0  0
    0.6530    0.2438   -0.6633 H   0  0  0  0  0  0  0  0  0  0  0  0
    3.0261    2.1112    2.0736 H   0  0  0  0  0  0  0  0  0  0  0  0
    2.0874    0.6420    1.7166 H   0  0  0  0  0  0  0  0  0  0  0  0
    2.5078    1.1362   -1.9958 H   0  0  0  0  0  0  0  0  0  0  0  0
    2.1755    2.7877   -1.4463 H   0  0  0  0  0  0  0  0  0  0  0  0
   -5.5157    3.2959   -1.0319 H   0  0  0  0  0  0  0  0  0  0  0  0
   -6.0654    0.0182   -2.7046 H   0  0  0  0  0  0  0  0  0  0  0  0
   -3.2852   -2.4114   -0.5512 H   0  0  0  0  0  0  0  0  0  0  0  0
    4.3964    0.1362    1.7687 H   0  0  0  0  0  0  0  0  0  0  0  0
    6.8034   -0.3024    1.5801 H   0  0  0  0  0  0  0  0  0  0  0  0
    6.8299    1.8906   -2.1022 H   0  0  0  0  0  0  0  0  0  0  0  0
    0.0493   -2.5796    2.4072 H   0  0  0  0  0  0  0  0  0  0  0  0
   -1.5612   -1.9106   -1.5544 H   0  0  0  0  0  0  0  0  0  0  0  0
    8.0729    0.5700   -0.3807 H   0  0  0  0  0  0  0  0  0  0  0  0
    2.1244   -3.3145    1.4505 H   0  0  0  0  0  0  0  0  0  0  0  0
    0.5349   -2.6799   -2.5312 H   0  0  0  0  0  0  0  0  0  0  0  0
    4.5547   -4.1609   -0.9012 H   0  0  0  0  0  0  0  0  0  0  0  0
    3.4102   -4.7303    0.3091 H   0  0  0  0  0  0  0  0  0  0  0  0
    4.0276   -3.0191    0.3302 H   0  0  0  0  0  0  0  0  0  0  0  0
  1 11  1  0  0  0  0
  1 14  1  0  0  0  0
  2 12  1  0  0  0  0
  2 51  1  0  0  0  0
  3 13  1  0  0  0  0
  3 52  1  0  0  0  0
  4 17  2  0  0  0  0
  5 23  2  0  0  0  0
  6 33  1  0  0  0  0
  6 34  1  0  0  0  0
  7 17  1  0  0  0  0
  7 18  1  0  0  0  0
  7 19  1  0  0  0  0
  8 20  1  0  0  0  0
  8 21  1  0  0  0  0
  8 22  1  0  0  0  0
  9 16  1  0  0  0  0
  9 23  1  0  0  0  0
  9 53  1  0  0  0  0
 10 22  1  0  0  0  0
 10 27  2  0  0  0  0
 11 12  1  0  0  0  0
 11 15  1  0  0  0  0
 11 35  1  0  0  0  0
 12 13  1  0  0  0  0
 12 36  1  0  0  0  0
 13 14  1  0  0  0  0
 13 37  1  0  0  0  0
 14 16  1  0  0  0  0
 14 38  1  0  0  0  0
 15 17  1  0  0  0  0
 15 39  1  0  0  0  0
 15 40  1  0  0  0  0
 16 41  1  0  0  0  0
 16 42  1  0  0  0  0
 18 20  1  0  0  0  0
 18 43  1  0  0  0  0
 18 44  1  0  0  0  0
 19 21  1  0  0  0  0
 19 45  1  0  0  0  0
 19 46  1  0  0  0  0
 20 47  1  0  0  0  0
 20 48  1  0  0  0  0
 21 49  1  0  0  0  0
 21 50  1  0  0  0  0
 22 24  2  0  0  0  0
 23 25  1  0  0  0  0
 24 26  1  0  0  0  0
 24 54  1  0  0  0  0
 25 28  2  0  0  0  0
 25 29  1  0  0  0  0
 26 30  2  0  0  0  0
 26 55  1  0  0  0  0
 27 30  1  0  0  0  0
 27 56  1  0  0  0  0
 28 31  1  0  0  0  0
 28 57  1  0  0  0  0
 29 32  2  0  0  0  0
 29 58  1  0  0  0  0
 30 59  1  0  0  0  0
 31 33  2  0  0  0  0
 31 60  1  0  0  0  0
 32 33  1  0  0  0  0
 32 61  1  0  0  0  0
 34 62  1  0  0  0  0
 34 63  1  0  0  0  0
 34 64  1  0  0  0  0
M  END
> <PUBCHEM_COMPOUND_CID>
26744680

> <PUBCHEM_CONFORMER_RMSD>
1.2

> <PUBCHEM_CONFORMER_DIVERSEORDER>
1
34
61
31
90
19
98
16
72
32
54
15
64
79
93
75
9
105
66
70
25
17
95
39
41
48
8
102
52
91
24
35
58
14
12
103
88
106
92
81
11
50
20
7
59
47
87
22
96
101
38
100
18
97
29
99
2
56
57
40
84
67
60
74
36
6
46
30
85
94
27
83
80
63
51
77
49
37
55
43
73
23
82
26
68
104
42
53
62
33
69
86
21
45
76
78
71
10
89
44
4
65
13
5
3
28

> <PUBCHEM_MMFF94_PARTIAL_CHARGES>
45
1 -0.56
10 -0.62
11 0.28
12 0.28
13 0.28
14 0.28
15 0.06
16 0.3
17 0.57
18 0.3
19 0.3
2 -0.68
20 0.37
21 0.37
22 0.41
23 0.54
24 -0.15
25 0.09
26 -0.15
27 0.16
28 -0.15
29 -0.15
3 -0.68
30 -0.15
31 -0.15
32 -0.15
33 0.08
34 0.28
4 -0.57
5 -0.57
51 0.4
52 0.4
53 0.37
54 0.15
55 0.15
56 0.15
57 0.15
58 0.15
59 0.15
6 -0.36
60 0.15
61 0.15
7 -0.66
8 -0.84
9 -0.73

> <PUBCHEM_EFFECTIVE_ROTOR_COUNT>
11.2

> <PUBCHEM_PHARMACOPHORE_FEATURES>
15
1 1 acceptor
1 10 acceptor
1 2 acceptor
1 2 donor
1 3 acceptor
1 3 donor
1 4 acceptor
1 5 acceptor
1 6 acceptor
1 8 cation
1 9 donor
5 1 11 12 13 14 rings
6 10 22 24 26 27 30 rings
6 25 28 29 31 32 33 rings
6 7 8 18 19 20 21 rings

> <PUBCHEM_HEAVY_ATOM_COUNT>
34

> <PUBCHEM_ATOM_DEF_STEREO_COUNT>
4

> <PUBCHEM_ATOM_UDEF_STEREO_COUNT>
0

> <PUBCHEM_BOND_DEF_STEREO_COUNT>
0

> <PUBCHEM_BOND_UDEF_STEREO_COUNT>
0

> <PUBCHEM_ISOTOPIC_ATOM_COUNT>
0

> <PUBCHEM_COMPONENT_COUNT>
1

> <PUBCHEM_CACTVS_TAUTO_COUNT>
2

> <PUBCHEM_CONFORMER_ID>
0198176800000001

> <PUBCHEM_MMFF94_ENERGY>
110.7535

> <PUBCHEM_FEATURE_SELFOVERLAP>
76.139

> <PUBCHEM_SHAPE_FINGERPRINT>
10675989 125 17325477810174574213
107951 10 17603585257076599051
11135926 11 18341329998884098669
11513181 2 17916025663728043974
11578080 2 17024565847427920447
12156800 1 17126720510011470623
12422481 6 18259978263347847098
13402501 40 18409730676928646906
14251757 5 18120949562143666584
14466204 15 18410013277466545916
14747281 78 17099163227395322077
15183329 4 17748819735294857096
15274700 242 17169525585352106272
15968369 153 18130776825437735762
20511986 3 17968652852433059480
20721686 56 18410012104724651011
20764821 26 18268160768256406978
21344244 246 18412819175427693383
23559900 14 18265892647456974201
3298306 158 18411696603724398144
3383291 50 18201154446859217414
338550 245 18335424586735046726
373842 8 18338516336081334506
4093350 32 17273992267469500663
5085150 59 18411129256420921754
5265222 85 18191877931875561372
59755656 215 18413106169268268878
7226269 152 18342461477710735432

> <PUBCHEM_SHAPE_MULTIPOLES>
644.56
14.12
4.52
1.58
7.22
3.63
-0.1
-6.61
3.52
1.58
0.18
-0.49
0.04
0.86

> <PUBCHEM_SHAPE_SELFOVERLAP>
1373.112

> <PUBCHEM_SHAPE_VOLUME>
355.7

> <PUBCHEM_COORDINATE_TYPE>
2
5
10

$$$$
