40780382
  -OEChem-12032416353D

 61 64  0     1  0  0  0  0  0999 V2000
    5.3951   -1.5665    0.3379 O   0  0  0  0  0  0  0  0  0  0  0  0
    3.5485   -0.1861    0.1581 N   0  0  0  0  0  0  0  0  0  0  0  0
   -3.2962   -0.5252   -0.0487 N   0  0  0  0  0  0  0  0  0  0  0  0
   -3.0536   -1.8162    0.2353 N   0  0  0  0  0  0  0  0  0  0  0  0
    5.6474    0.7562    0.1099 N   0  0  0  0  0  0  0  0  0  0  0  0
    0.3435   -0.3989   -0.4447 C   0  0  2  0  0  0  0  0  0  0  0  0
    1.2138   -0.7136    0.7896 C   0  0  0  0  0  0  0  0  0  0  0  0
    2.5528   -1.2211    0.2401 C   0  0  1  0  0  0  0  0  0  0  0  0
   -1.1251   -0.6833   -0.2284 C   0  0  0  0  0  0  0  0  0  0  0  0
    0.9921   -1.2271   -1.5157 C   0  0  0  0  0  0  0  0  0  0  0  0
    2.1966   -1.6693   -1.1392 C   0  0  0  0  0  0  0  0  0  0  0  0
   -2.1745    0.1966   -0.3337 C   0  0  0  0  0  0  0  0  0  0  0  0
   -1.7256   -1.9068    0.1238 C   0  0  0  0  0  0  0  0  0  0  0  0
   -2.2000    1.6333   -0.6759 C   0  0  0  0  0  0  0  0  0  0  0  0
   -4.6069   -0.0472   -0.0312 C   0  0  0  0  0  0  0  0  0  0  0  0
   -1.0650   -3.2016    0.3657 C   0  0  0  0  0  0  0  0  0  0  0  0
    4.9273   -0.4372    0.2139 C   0  0  0  0  0  0  0  0  0  0  0  0
   -4.9778    1.0047   -0.8687 C   0  0  0  0  0  0  0  0  0  0  0  0
   -5.5455   -0.6194    0.8276 C   0  0  0  0  0  0  0  0  0  0  0  0
   -7.2261    0.9123    0.0110 C   0  0  0  0  0  0  0  0  0  0  0  0
   -8.6258    1.4262    0.0336 C   0  0  0  0  0  0  0  0  0  0  0  0
   -6.2873    1.4845   -0.8476 C   0  0  0  0  0  0  0  0  0  0  0  0
   -6.8550   -0.1395    0.8487 C   0  0  0  0  0  0  0  0  0  0  0  0
   -9.0166    2.0104    1.4044 C   0  0  0  0  0  0  0  0  0  0  0  0
   -9.6522    0.3588   -0.3911 C   0  0  0  0  0  0  0  0  0  0  0  0
    7.0515    0.9268    0.1238 C   0  0  0  0  0  0  0  0  0  0  0  0
    7.5992    2.2044    0.0086 C   0  0  0  0  0  0  0  0  0  0  0  0
    7.8882   -0.1816    0.2528 C   0  0  0  0  0  0  0  0  0  0  0  0
    8.9839    2.3736    0.0223 C   0  0  0  0  0  0  0  0  0  0  0  0
    9.2728   -0.0126    0.2666 C   0  0  0  0  0  0  0  0  0  0  0  0
    9.8205    1.2651    0.1512 C   0  0  0  0  0  0  0  0  0  0  0  0
    0.4792    0.6540   -0.7205 H   0  0  0  0  0  0  0  0  0  0  0  0
    1.3286    0.1731    1.4250 H   0  0  0  0  0  0  0  0  0  0  0  0
    0.7699   -1.4867    1.4254 H   0  0  0  0  0  0  0  0  0  0  0  0
    2.9295   -2.0539    0.8430 H   0  0  0  0  0  0  0  0  0  0  0  0
    0.5560   -1.4141   -2.4870 H   0  0  0  0  0  0  0  0  0  0  0  0
    2.8445   -2.2660   -1.7657 H   0  0  0  0  0  0  0  0  0  0  0  0
    3.2428    0.7650   -0.0261 H   0  0  0  0  0  0  0  0  0  0  0  0
   -2.3473    1.7939   -1.7478 H   0  0  0  0  0  0  0  0  0  0  0  0
   -2.9059    2.2174   -0.0791 H   0  0  0  0  0  0  0  0  0  0  0  0
   -1.2257    2.0819   -0.4461 H   0  0  0  0  0  0  0  0  0  0  0  0
   -0.6679   -3.2500    1.3842 H   0  0  0  0  0  0  0  0  0  0  0  0
   -1.7735   -4.0305    0.2540 H   0  0  0  0  0  0  0  0  0  0  0  0
   -0.2503   -3.3893   -0.3371 H   0  0  0  0  0  0  0  0  0  0  0  0
   -4.3481    1.4142   -1.6459 H   0  0  0  0  0  0  0  0  0  0  0  0
   -5.2848   -1.4324    1.5006 H   0  0  0  0  0  0  0  0  0  0  0  0
   -8.7139    2.2476   -0.6906 H   0  0  0  0  0  0  0  0  0  0  0  0
   -6.5675    2.2867   -1.5252 H   0  0  0  0  0  0  0  0  0  0  0  0
   -7.5692   -0.5980    1.5271 H   0  0  0  0  0  0  0  0  0  0  0  0
    5.1038    1.6102    0.0135 H   0  0  0  0  0  0  0  0  0  0  0  0
   -8.3080    2.7873    1.7124 H   0  0  0  0  0  0  0  0  0  0  0  0
   -9.0346    1.2437    2.1865 H   0  0  0  0  0  0  0  0  0  0  0  0
  -10.0129    2.4632    1.3586 H   0  0  0  0  0  0  0  0  0  0  0  0
  -10.6552    0.7947   -0.4546 H   0  0  0  0  0  0  0  0  0  0  0  0
   -9.4012   -0.0523   -1.3753 H   0  0  0  0  0  0  0  0  0  0  0  0
   -9.6950   -0.4738    0.3193 H   0  0  0  0  0  0  0  0  0  0  0  0
    6.9585    3.0767   -0.0925 H   0  0  0  0  0  0  0  0  0  0  0  0
    7.5399   -1.2004    0.3464 H   0  0  0  0  0  0  0  0  0  0  0  0
    9.4104    3.3683   -0.0674 H   0  0  0  0  0  0  0  0  0  0  0  0
    9.9256   -0.8749    0.3669 H   0  0  0  0  0  0  0  0  0  0  0  0
   10.8985    1.3967    0.1618 H   0  0  0  0  0  0  0  0  0  0  0  0
  1 17  2  0  0  0  0
  2  8  1  0  0  0  0
  2 17  1  0  0  0  0
  2 38  1  0  0  0  0
  3  4  1  0  0  0  0
  3 12  1  0  0  0  0
  3 15  1  0  0  0  0
  4 13  2  0  0  0  0
  5 17  1  0  0  0  0
  5 26  1  0  0  0  0
  5 50  1  0  0  0  0
  6  7  1  0  0  0  0
  6  9  1  0  0  0  0
  6 10  1  0  0  0  0
  6 32  1  0  0  0  0
  7  8  1  0  0  0  0
  7 33  1  0  0  0  0
  7 34  1  0  0  0  0
  8 11  1  0  0  0  0
  8 35  1  0  0  0  0
  9 12  2  0  0  0  0
  9 13  1  0  0  0  0
 10 11  2  0  0  0  0
 10 36  1  0  0  0  0
 11 37  1  0  0  0  0
 12 14  1  0  0  0  0
 13 16  1  0  0  0  0
 14 39  1  0  0  0  0
 14 40  1  0  0  0  0
 14 41  1  0  0  0  0
 15 18  2  0  0  0  0
 15 19  1  0  0  0  0
 16 42  1  0  0  0  0
 16 43  1  0  0  0  0
 16 44  1  0  0  0  0
 18 22  1  0  0  0  0
 18 45  1  0  0  0  0
 19 23  2  0  0  0  0
 19 46  1  0  0  0  0
 20 21  1  0  0  0  0
 20 22  2  0  0  0  0
 20 23  1  0  0  0  0
 21 24  1  0  0  0  0
 21 25  1  0  0  0  0
 21 47  1  0  0  0  0
 22 48  1  0  0  0  0
 23 49  1  0  0  0  0
 24 51  1  0  0  0  0
 24 52  1  0  0  0  0
 24 53  1  0  0  0  0
 25 54  1  0  0  0  0
 25 55  1  0  0  0  0
 25 56  1  0  0  0  0
 26 27  2  0  0  0  0
 26 28  1  0  0  0  0
 27 29  1  0  0  0  0
 27 57  1  0  0  0  0
 28 30  2  0  0  0  0
 28 58  1  0  0  0  0
 29 31  2  0  0  0  0
 29 59  1  0  0  0  0
 30 31  1  0  0  0  0
 30 60  1  0  0  0  0
 31 61  1  0  0  0  0
M  END
> <PUBCHEM_COMPOUND_CID>
40780382

> <PUBCHEM_CONFORMER_RMSD>
1

> <PUBCHEM_CONFORMER_DIVERSEORDER>
3
48
35
44
18
77
67
10
59
32
34
23
79
78
28
25
87
14
82
81
54
80
65
68
36
58
66
50
16
21
9
52
74
76
91
2
64
40
43
22
33
38
60
53
73
45
15
13
29
56
84
61
26
4
83
71
20
19
70
37
55
39
31
11
85
7
17
69
88
27
90
72
62
24
57
1
5
51
41
8
89
75
46
12
42
47
49
6
86
63
30

> <PUBCHEM_MMFF94_PARTIAL_CHARGES>
41
1 -0.57
10 -0.29
11 -0.29
12 -0.33
13 0.11
14 0.18
15 -0.02
16 0.18
17 0.69
18 -0.15
19 -0.15
2 -0.73
20 -0.14
21 0.14
22 -0.15
23 -0.15
26 0.12
27 -0.15
28 -0.15
29 -0.15
3 0.59
30 -0.15
31 -0.15
36 0.15
37 0.15
38 0.37
4 -0.71
45 0.15
46 0.15
48 0.15
49 0.15
5 -0.55
50 0.37
57 0.15
58 0.15
59 0.15
6 0.32
60 0.15
61 0.15
8 0.44
9 -0.18

> <PUBCHEM_EFFECTIVE_ROTOR_COUNT>
7.6

> <PUBCHEM_PHARMACOPHORE_FEATURES>
9
1 1 acceptor
1 2 donor
1 4 acceptor
1 5 donor
3 21 24 25 hydrophobe
5 3 4 9 12 13 rings
5 6 7 8 10 11 rings
6 15 18 19 20 22 23 rings
6 26 27 28 29 30 31 rings

> <PUBCHEM_HEAVY_ATOM_COUNT>
31

> <PUBCHEM_ATOM_DEF_STEREO_COUNT>
2

> <PUBCHEM_ATOM_UDEF_STEREO_COUNT>
0

> <PUBCHEM_BOND_DEF_STEREO_COUNT>
0

> <PUBCHEM_BOND_UDEF_STEREO_COUNT>
0

> <PUBCHEM_ISOTOPIC_ATOM_COUNT>
0

> <PUBCHEM_COMPONENT_COUNT>
1

> <PUBCHEM_CACTVS_TAUTO_COUNT>
3

> <PUBCHEM_CONFORMER_ID>
026E425E00000003

> <PUBCHEM_MMFF94_ENERGY>
87.8449

> <PUBCHEM_FEATURE_SELFOVERLAP>
45.722

> <PUBCHEM_SHAPE_FINGERPRINT>
10 15 18113898260598248722
10076449 9 14979959168394549251
10165383 225 18412824681190430323
10369192 42 18408600340853591623
10533779 47 17168136799017808426
106641 1 17312823775124519585
11386260 185 14405177400971005362
11409948 8 18260840319667219651
11456790 92 15140967248846064157
11578821 258 18411140272622704340
12522641 33 18130787836927203751
12592606 108 8718825388396562596
13540713 5 15287073759959908234
13740195 50 18113621218344377059
14026016 60 14979693044433373564
14251764 46 18410855455833213994
14344974 52 17131824417127723185
14428016 248 18131352994952503785
14428016 86 18412826872019130230
14617042 71 18337113458055232140
14933364 13 18336263527329499506
15183329 4 13830140499214129478
15247644 1 13118003296797227497
15461852 350 17845930835479387199
155225 1 18343301465760270257
15690457 1 8070028861571513792
15706992 2 18410020939398149088
1577012 14 18409721881384861514
15773216 30 15051185484666738748
15840311 113 18335423470207262236
15890870 6 18412824689764326169
16989713 51 17344901047724099407
1754911 235 16057159505977365433
1818759 1 11314305040754891168
19301679 30 14057265451895448810
19302320 297 17822294617665665132
19315958 150 18410296887227145206
19841028 212 9366808277456256388
20156587 128 14764079912613863607
2026 5 8646507214667370912
20505436 4 18408877443301296306
21095123 145 17346595306007718287
21102433 48 12179848321061300249
21267235 1 9871747996836352511
22224240 67 16805601482574023378
23524908 199 17561093476177739820
23576562 1 16486114262360327264
24771293 8 18412266121537773453
306946 40 17458613494621182277
3092352 35 18060134336396520750
3711267 37 18271258178290560912
395649 100 18339073900520683679
437795 150 14332830656565212589
44280117 145 18127689546240819910
4760202 170 16271638006326553608
54039377 194 8790887384638448978
59682541 35 17385726889304238233
6081469 158 11815895652049023490
636775 72 18339081489596032937
636775 8 14764337276926355933
67123 10 18410854369691817295
9663363 56 17240201029207859085
9953998 17 17748828535888295819
9962374 69 11819285485162834672

> <PUBCHEM_SHAPE_MULTIPOLES>
612.17
34.89
2.36
0.96
24.11
0.42
0.07
-26.56
-5.51
0.8
-0.1
-0.98
0.01
0.06

> <PUBCHEM_SHAPE_SELFOVERLAP>
1321.173

> <PUBCHEM_SHAPE_VOLUME>
339.1

> <PUBCHEM_COORDINATE_TYPE>
2
5
10

$$$$
