51137316
  -OEChem-12032416233D

 37 39  0     1  0  0  0  0  0999 V2000
    0.4656   -0.4285    0.1510 O   0  0  0  0  0  0  0  0  0  0  0  0
   -3.5534    0.1198    0.0841 N   0  0  1  0  0  0  0  0  0  0  0  0
    0.4014   -2.6140   -0.3220 N   0  0  0  0  0  0  0  0  0  0  0  0
    1.7163   -2.1963   -0.4098 N   0  0  0  0  0  0  0  0  0  0  0  0
    4.8733    1.8824    0.0552 N   0  0  0  0  0  0  0  0  0  0  0  0
   -1.7783   -1.4044    0.2429 C   0  0  2  0  0  0  0  0  0  0  0  0
   -2.4398   -0.4013   -0.7116 C   0  0  0  0  0  0  0  0  0  0  0  0
   -2.1655   -0.9168    1.6499 C   0  0  0  0  0  0  0  0  0  0  0  0
   -2.9933    0.3404    1.4173 C   0  0  0  0  0  0  0  0  0  0  0  0
   -4.1231    1.3321   -0.4852 C   0  0  0  0  0  0  0  0  0  0  0  0
   -0.2925   -1.5498    0.0077 C   0  0  0  0  0  0  0  0  0  0  0  0
   -4.6502    1.0362   -1.8857 C   0  0  0  0  0  0  0  0  0  0  0  0
   -5.2317    1.8693    0.4155 C   0  0  0  0  0  0  0  0  0  0  0  0
    1.7061   -0.9148   -0.1262 C   0  0  0  0  0  0  0  0  0  0  0  0
    2.7802    0.0335   -0.0639 C   0  0  0  0  0  0  0  0  0  0  0  0
    4.0838   -0.3699   -0.3307 C   0  0  0  0  0  0  0  0  0  0  0  0
    2.5219    1.3603    0.2623 C   0  0  0  0  0  0  0  0  0  0  0  0
    5.0857    0.5845   -0.2585 C   0  0  0  0  0  0  0  0  0  0  0  0
    3.5936    2.2374    0.3080 C   0  0  0  0  0  0  0  0  0  0  0  0
   -2.2329   -2.3936    0.0923 H   0  0  0  0  0  0  0  0  0  0  0  0
   -2.7760   -0.9182   -1.6170 H   0  0  0  0  0  0  0  0  0  0  0  0
   -1.7428    0.3947   -1.0053 H   0  0  0  0  0  0  0  0  0  0  0  0
   -2.7760   -1.6834    2.1435 H   0  0  0  0  0  0  0  0  0  0  0  0
   -1.3036   -0.7138    2.2943 H   0  0  0  0  0  0  0  0  0  0  0  0
   -2.3420    1.2235    1.4480 H   0  0  0  0  0  0  0  0  0  0  0  0
   -3.7577    0.4351    2.1947 H   0  0  0  0  0  0  0  0  0  0  0  0
   -3.3592    2.1168   -0.5744 H   0  0  0  0  0  0  0  0  0  0  0  0
   -5.1900    1.9041   -2.2820 H   0  0  0  0  0  0  0  0  0  0  0  0
   -3.8463    0.8205   -2.5969 H   0  0  0  0  0  0  0  0  0  0  0  0
   -5.3480    0.1908   -1.8851 H   0  0  0  0  0  0  0  0  0  0  0  0
   -5.7443    2.7089   -0.0678 H   0  0  0  0  0  0  0  0  0  0  0  0
   -4.8462    2.2467    1.3682 H   0  0  0  0  0  0  0  0  0  0  0  0
   -5.9865    1.1032    0.6269 H   0  0  0  0  0  0  0  0  0  0  0  0
    4.3311   -1.3944   -0.5894 H   0  0  0  0  0  0  0  0  0  0  0  0
    1.5265    1.7333    0.4800 H   0  0  0  0  0  0  0  0  0  0  0  0
    6.1192    0.3211   -0.4577 H   0  0  0  0  0  0  0  0  0  0  0  0
    3.4456    3.2830    0.5573 H   0  0  0  0  0  0  0  0  0  0  0  0
  1 11  1  0  0  0  0
  1 14  1  0  0  0  0
  2  7  1  0  0  0  0
  2  9  1  0  0  0  0
  2 10  1  0  0  0  0
  3  4  1  0  0  0  0
  3 11  2  0  0  0  0
  4 14  2  0  0  0  0
  5 18  2  0  0  0  0
  5 19  1  0  0  0  0
  6  7  1  0  0  0  0
  6  8  1  0  0  0  0
  6 11  1  0  0  0  0
  6 20  1  0  0  0  0
  7 21  1  0  0  0  0
  7 22  1  0  0  0  0
  8  9  1  0  0  0  0
  8 23  1  0  0  0  0
  8 24  1  0  0  0  0
  9 25  1  0  0  0  0
  9 26  1  0  0  0  0
 10 12  1  0  0  0  0
 10 13  1  0  0  0  0
 10 27  1  0  0  0  0
 12 28  1  0  0  0  0
 12 29  1  0  0  0  0
 12 30  1  0  0  0  0
 13 31  1  0  0  0  0
 13 32  1  0  0  0  0
 13 33  1  0  0  0  0
 14 15  1  0  0  0  0
 15 16  2  0  0  0  0
 15 17  1  0  0  0  0
 16 18  1  0  0  0  0
 16 34  1  0  0  0  0
 17 19  2  0  0  0  0
 17 35  1  0  0  0  0
 18 36  1  0  0  0  0
 19 37  1  0  0  0  0
M  END
> <PUBCHEM_COMPOUND_CID>
51137316

> <PUBCHEM_CONFORMER_RMSD>
0.6

> <PUBCHEM_CONFORMER_DIVERSEORDER>
1
4
14
5
6
15
19
16
24
25
7
20
22
21
13
8
10
17
3
23
11
18
12
26
2
9

> <PUBCHEM_MMFF94_PARTIAL_CHARGES>
20
1 -0.28
10 0.27
11 0.3
14 0.43
15 0.05
16 -0.15
17 -0.15
18 0.16
19 0.16
2 -0.81
3 -0.34
34 0.15
35 0.15
36 0.15
37 0.15
4 -0.34
5 -0.62
6 0.18
7 0.27
9 0.27

> <PUBCHEM_EFFECTIVE_ROTOR_COUNT>
4

> <PUBCHEM_PHARMACOPHORE_FEATURES>
6
1 2 cation
1 5 acceptor
3 10 12 13 hydrophobe
5 1 3 4 11 14 rings
5 2 6 7 8 9 rings
6 5 15 16 17 18 19 rings

> <PUBCHEM_HEAVY_ATOM_COUNT>
19

> <PUBCHEM_ATOM_DEF_STEREO_COUNT>
1

> <PUBCHEM_ATOM_UDEF_STEREO_COUNT>
0

> <PUBCHEM_BOND_DEF_STEREO_COUNT>
0

> <PUBCHEM_BOND_UDEF_STEREO_COUNT>
0

> <PUBCHEM_ISOTOPIC_ATOM_COUNT>
0

> <PUBCHEM_COMPONENT_COUNT>
1

> <PUBCHEM_CACTVS_TAUTO_COUNT>
1

> <PUBCHEM_CONFORMER_ID>
030C4B2400000001

> <PUBCHEM_MMFF94_ENERGY>
31.1581

> <PUBCHEM_FEATURE_SELFOVERLAP>
30.447

> <PUBCHEM_SHAPE_FINGERPRINT>
10014705 185 18409729598907705839
10498660 4 18413388765036375192
11045515 52 17406823459493773135
11089746 13 18410846668868151124
11543360 7 14692575446340097394
11552529 35 16082506672291908874
12363563 72 9871753515573538972
12403259 118 17895758533655117332
12403259 415 18337966665491149874
12596602 18 14057012606548624773
12633257 1 16153709859632094005
12730499 353 18337680728502601531
12769317 202 18340759360490597033
12788726 201 16772959074010498737
13103583 49 12180127523677706381
13402501 40 18260543403355340261
13544653 18 9511466627800177386
13583140 156 18040438827631468130
13740256 8 9439401337265172980
14123255 352 18334010605353307844
14178342 30 16805615797278404923
1420 369 8646772205057835112
14251764 30 11603089523554264112
14252887 29 12324235049573961120
14848178 96 18341890826933810608
14957384 54 18188762972236147648
15003188 100 18410285947744729317
15196674 1 18411420639385998000
15375358 24 18260546706089621405
17834072 32 18410293631245821644
1813 80 10809624762229896994
18186145 218 18129959973859865122
18219364 16 18339654428698217051
193927 3 10519988196431168100
19784866 170 17821450144730691638
20281475 54 9367349253480778050
20374829 77 11600006527135027319
20645477 56 18187372008691521259
20871999 31 14620797081011088203
21033648 29 18338794628059887816
212916 134 16588023472928224857
21401589 2 18187085066147733041
21713013 43 12535633756057020073
22950370 63 8502378862188834354
231179 274 18334859411482358498
23402539 116 16343717529665094826
23402655 69 18202561774123188036
23403322 49 10303819769609355757
235170 7 14045749209634115040
23559900 14 18340487742875807090
27216 239 18188495795189559331
2838139 119 18337945706240961389
2916195 48 18114180796806778549
314194 84 8718537320360021084
335352 9 18411983538506804390
4028521 119 18343021111775006233
4259306 186 10375866368668318585
4325135 7 18342738538315316007
474 4 18341050731340801259
5104073 3 18187082849380164722
5352402 22 8790881917150569965
5486654 36 9727363471382288567
6328613 192 18337117869281810548
633830 44 17702690794376973850
7970288 3 8718831980844918624
83771 10 8574711299505163439
9862886 166 13110954353868985628

> <PUBCHEM_SHAPE_MULTIPOLES>
365.22
11.38
2.38
1.15
0.16
0.22
-0.02
-8.67
1.43
0.73
0.05
-1.65
-0.09
0.85

> <PUBCHEM_SHAPE_SELFOVERLAP>
779.602

> <PUBCHEM_SHAPE_VOLUME>
205

> <PUBCHEM_COORDINATE_TYPE>
2
5
10

$$$$
