51137889
  -OEChem-12032416243D

 49 52  0     1  0  0  0  0  0999 V2000
   -0.7826   -0.3280    0.2844 N   0  0  1  0  0  0  0  0  0  0  0  0
    3.8215   -1.1331    0.2685 N   0  0  0  0  0  0  0  0  0  0  0  0
    3.3397    1.0362    0.3118 N   0  0  0  0  0  0  0  0  0  0  0  0
    1.4645   -0.5277    0.9251 C   0  0  2  0  0  0  0  0  0  0  0  0
    0.5147   -0.7302   -0.2632 C   0  0  0  0  0  0  0  0  0  0  0  0
    0.7712    0.5296    1.8019 C   0  0  0  0  0  0  0  0  0  0  0  0
   -0.5072    0.8852    1.0540 C   0  0  0  0  0  0  0  0  0  0  0  0
    2.8721   -0.1773    0.5012 C   0  0  0  0  0  0  0  0  0  0  0  0
   -1.7802   -0.1116   -0.7530 C   0  0  0  0  0  0  0  0  0  0  0  0
   -3.1828   -0.1054   -0.1471 C   0  0  0  0  0  0  0  0  0  0  0  0
    4.9787   -0.4939   -0.0955 C   0  0  0  0  0  0  0  0  0  0  0  0
   -4.2458    0.1422   -1.2205 C   0  0  0  0  0  0  0  0  0  0  0  0
    4.6523    0.8590   -0.0609 C   0  0  0  0  0  0  0  0  0  0  0  0
    3.6419   -2.5628    0.3842 C   0  0  0  0  0  0  0  0  0  0  0  0
    6.2444   -0.9685   -0.4413 C   0  0  0  0  0  0  0  0  0  0  0  0
   -5.6382    0.1142   -0.6437 C   0  0  0  0  0  0  0  0  0  0  0  0
    5.6347    1.8091   -0.3877 C   0  0  0  0  0  0  0  0  0  0  0  0
    7.2099   -0.0091   -0.7639 C   0  0  0  0  0  0  0  0  0  0  0  0
    6.9126    1.3555   -0.7382 C   0  0  0  0  0  0  0  0  0  0  0  0
   -6.3461   -1.0864   -0.5879 C   0  0  0  0  0  0  0  0  0  0  0  0
   -6.2186    1.2889   -0.1657 C   0  0  0  0  0  0  0  0  0  0  0  0
   -7.6347   -1.1121   -0.0542 C   0  0  0  0  0  0  0  0  0  0  0  0
   -7.5070    1.2634    0.3680 C   0  0  0  0  0  0  0  0  0  0  0  0
   -8.2151    0.0628    0.4237 C   0  0  0  0  0  0  0  0  0  0  0  0
    1.4912   -1.4517    1.5188 H   0  0  0  0  0  0  0  0  0  0  0  0
    0.5067   -1.7734   -0.5965 H   0  0  0  0  0  0  0  0  0  0  0  0
    0.8056   -0.0986   -1.1136 H   0  0  0  0  0  0  0  0  0  0  0  0
    0.5230    0.0863    2.7748 H   0  0  0  0  0  0  0  0  0  0  0  0
    1.3792    1.4193    1.9947 H   0  0  0  0  0  0  0  0  0  0  0  0
   -0.3247    1.7506    0.4040 H   0  0  0  0  0  0  0  0  0  0  0  0
   -1.3103    1.1357    1.7536 H   0  0  0  0  0  0  0  0  0  0  0  0
   -1.5909    0.8112   -1.3162 H   0  0  0  0  0  0  0  0  0  0  0  0
   -1.7372   -0.9361   -1.4770 H   0  0  0  0  0  0  0  0  0  0  0  0
   -3.3737   -1.0641    0.3532 H   0  0  0  0  0  0  0  0  0  0  0  0
   -3.2677    0.6727    0.6214 H   0  0  0  0  0  0  0  0  0  0  0  0
   -4.1654   -0.6124   -2.0135 H   0  0  0  0  0  0  0  0  0  0  0  0
   -4.0710    1.1094   -1.7091 H   0  0  0  0  0  0  0  0  0  0  0  0
    3.5526   -2.8114    1.4447 H   0  0  0  0  0  0  0  0  0  0  0  0
    2.7389   -2.8512   -0.1589 H   0  0  0  0  0  0  0  0  0  0  0  0
    4.4946   -3.0896   -0.0479 H   0  0  0  0  0  0  0  0  0  0  0  0
    6.4844   -2.0251   -0.4619 H   0  0  0  0  0  0  0  0  0  0  0  0
    5.4136    2.8715   -0.3707 H   0  0  0  0  0  0  0  0  0  0  0  0
    8.2108   -0.3325   -1.0393 H   0  0  0  0  0  0  0  0  0  0  0  0
    7.6841    2.0773   -0.9938 H   0  0  0  0  0  0  0  0  0  0  0  0
   -5.9039   -2.0085   -0.9554 H   0  0  0  0  0  0  0  0  0  0  0  0
   -5.6762    2.2300   -0.2021 H   0  0  0  0  0  0  0  0  0  0  0  0
   -8.1859   -2.0469   -0.0103 H   0  0  0  0  0  0  0  0  0  0  0  0
   -7.9589    2.1780    0.7406 H   0  0  0  0  0  0  0  0  0  0  0  0
   -9.2183    0.0428    0.8395 H   0  0  0  0  0  0  0  0  0  0  0  0
  1  5  1  0  0  0  0
  1  7  1  0  0  0  0
  1  9  1  0  0  0  0
  2  8  1  0  0  0  0
  2 11  1  0  0  0  0
  2 14  1  0  0  0  0
  3  8  2  0  0  0  0
  3 13  1  0  0  0  0
  4  5  1  0  0  0  0
  4  6  1  0  0  0  0
  4  8  1  0  0  0  0
  4 25  1  0  0  0  0
  5 26  1  0  0  0  0
  5 27  1  0  0  0  0
  6  7  1  0  0  0  0
  6 28  1  0  0  0  0
  6 29  1  0  0  0  0
  7 30  1  0  0  0  0
  7 31  1  0  0  0  0
  9 10  1  0  0  0  0
  9 32  1  0  0  0  0
  9 33  1  0  0  0  0
 10 12  1  0  0  0  0
 10 34  1  0  0  0  0
 10 35  1  0  0  0  0
 11 13  1  0  0  0  0
 11 15  2  0  0  0  0
 12 16  1  0  0  0  0
 12 36  1  0  0  0  0
 12 37  1  0  0  0  0
 13 17  2  0  0  0  0
 14 38  1  0  0  0  0
 14 39  1  0  0  0  0
 14 40  1  0  0  0  0
 15 18  1  0  0  0  0
 15 41  1  0  0  0  0
 16 20  2  0  0  0  0
 16 21  1  0  0  0  0
 17 19  1  0  0  0  0
 17 42  1  0  0  0  0
 18 19  2  0  0  0  0
 18 43  1  0  0  0  0
 19 44  1  0  0  0  0
 20 22  1  0  0  0  0
 20 45  1  0  0  0  0
 21 23  2  0  0  0  0
 21 46  1  0  0  0  0
 22 24  2  0  0  0  0
 22 47  1  0  0  0  0
 23 24  1  0  0  0  0
 23 48  1  0  0  0  0
 24 49  1  0  0  0  0
M  END
> <PUBCHEM_COMPOUND_CID>
51137889

> <PUBCHEM_CONFORMER_RMSD>
0.8

> <PUBCHEM_CONFORMER_DIVERSEORDER>
1
19
96
114
86
66
110
62
113
32
87
106
27
25
14
5
45
111
98
80
73
33
26
105
91
39
74
78
97
82
20
11
95
21
43
77
102
85
18
94
48
81
75
101
29
70
31
23
71
22
28
90
60
15
63
104
4
35
84
67
47
41
107
10
9
61
7
54
64
68
13
79
112
92
37
69
109
34
58
6
89
56
108
88
38
72
50
52
40
93
115
51
103
3
8
49
99
12
42
24
16
46
2
100
53
30
17
57
55
83
44
65
36
76
59

> <PUBCHEM_MMFF94_PARTIAL_CHARGES>
31
1 -0.81
11 -0.15
12 0.14
13 0.23
14 0.26
15 -0.15
16 -0.14
17 -0.15
18 -0.15
19 -0.15
2 0.05
20 -0.15
21 -0.15
22 -0.15
23 -0.15
24 -0.15
3 -0.57
4 0.18
41 0.15
42 0.15
43 0.15
44 0.15
45 0.15
46 0.15
47 0.15
48 0.15
49 0.15
5 0.27
7 0.27
8 0.01
9 0.27

> <PUBCHEM_EFFECTIVE_ROTOR_COUNT>
6

> <PUBCHEM_PHARMACOPHORE_FEATURES>
6
1 1 cation
3 2 3 8 cation
5 1 4 5 6 7 rings
5 2 3 8 11 13 rings
6 11 13 15 17 18 19 rings
6 16 20 21 22 23 24 rings

> <PUBCHEM_HEAVY_ATOM_COUNT>
24

> <PUBCHEM_ATOM_DEF_STEREO_COUNT>
1

> <PUBCHEM_ATOM_UDEF_STEREO_COUNT>
0

> <PUBCHEM_BOND_DEF_STEREO_COUNT>
0

> <PUBCHEM_BOND_UDEF_STEREO_COUNT>
0

> <PUBCHEM_ISOTOPIC_ATOM_COUNT>
0

> <PUBCHEM_COMPONENT_COUNT>
1

> <PUBCHEM_CACTVS_TAUTO_COUNT>
1

> <PUBCHEM_CONFORMER_ID>
030C4D6100000001

> <PUBCHEM_MMFF94_ENERGY>
47.8824

> <PUBCHEM_FEATURE_SELFOVERLAP>
30.556

> <PUBCHEM_SHAPE_FINGERPRINT>
10 15 12829491458405155189
10162869 55 11097862929726109579
10299344 5 18343301470677372423
10595046 47 18409446947178735857
106641 1 12324244983796516948
10883706 142 17531241777731868592
11136131 41 13840251577773225217
11315181 36 13045943500510954159
11524674 6 15626219144149650199
11646440 116 16443067187915659276
11724838 91 16588024636268438543
12592606 108 16773791524592433831
12730499 353 17894628132960243226
13533116 47 18335134237786814034
13685833 64 12967132709643454036
13835254 42 16661195941639394916
13885169 127 10951777365511294851
14123256 10 18272370875672805900
14251752 14 17632577136986702561
14251764 18 18202280312690814151
14671636 106 18114467881470051971
14675020 138 18270944814141325402
14849402 71 18261397805800650853
14856354 85 18130786794235892655
14933364 13 18409729556496200653
15183329 4 17060338513897821169
18006028 8 13830132792998425531
18335252 98 18259989284165486979
20157964 124 18187364329458716438
20735858 18 13406792229049906793
21033648 29 17313948666574404032
21095086 128 18411135849232845567
21150785 3 18408887343120739753
21267235 1 17346883350997014243
21365058 27 18040718065574315459
21521721 280 18186803590801581803
21792961 116 17632296714065931013
220451 1 18130781266128036543
221357 26 18409164403446596356
22224240 67 14707208833350745601
23016692 55 16702582735976797728
23081809 10 18201988920661166343
23424782 7 18040438823684679443
23516275 137 18199206018019713211
23522609 53 18059032639142308601
255183 451 17913498944028809334
28498 318 14117805699638366837
29717793 49 17918277541673527124
3004659 81 17632572760209189504
34797466 226 18040436585542332190
4073 2 18113903801106769083
4098825 35 18336827489961772965
4325135 7 17967532385289873327
5283156 175 17846780681465172766
5758199 1 17240202123569711025
59682541 35 15430042080098225205
6394761 36 14333412246475691549

> <PUBCHEM_SHAPE_MULTIPOLES>
478.97
25.78
1.6
1.06
25.76
0.32
0.19
-2.97
-4.97
-1.46
0.05
-0.02
-0.11
-0.78

> <PUBCHEM_SHAPE_SELFOVERLAP>
1033.521

> <PUBCHEM_SHAPE_VOLUME>
264.5

> <PUBCHEM_COORDINATE_TYPE>
2
5
10

$$$$
