40778241
  -OEChem-12032416173D

 58 61  0     1  0  0  0  0  0999 V2000
    8.3528   -0.4469   -0.4868 F   0  0  0  0  0  0  0  0  0  0  0  0
   -3.9102    0.7098    0.9073 O   0  0  0  0  0  0  0  0  0  0  0  0
   -5.5994    2.5546   -0.8241 O   0  0  0  0  0  0  0  0  0  0  0  0
   -6.1603    0.0496   -1.8133 O   0  0  0  0  0  0  0  0  0  0  0  0
   -1.5431    2.3669    1.6855 O   0  0  0  0  0  0  0  0  0  0  0  0
   -2.3242   -1.5469    2.0809 O   0  0  0  0  0  0  0  0  0  0  0  0
   -1.2240   -2.9266   -0.9942 O   0  0  0  0  0  0  0  0  0  0  0  0
    0.2405    1.6093    0.4031 N   0  0  0  0  0  0  0  0  0  0  0  0
    3.0411    0.9496    0.0850 N   0  0  0  0  0  0  0  0  0  0  0  0
   -3.5310   -1.9999    0.1517 N   0  0  0  0  0  0  0  0  0  0  0  0
   -3.5014    1.7508   -0.0092 C   0  0  2  0  0  0  0  0  0  0  0  0
   -4.4943    1.7188   -1.1660 C   0  0  1  0  0  0  0  0  0  0  0  0
   -4.9186    0.2648   -1.1772 C   0  0  1  0  0  0  0  0  0  0  0  0
   -4.9773   -0.0467    0.3089 C   0  0  1  0  0  0  0  0  0  0  0  0
   -2.0719    1.4553   -0.4423 C   0  0  0  0  0  0  0  0  0  0  0  0
   -4.7971   -1.5212    0.6224 C   0  0  0  0  0  0  0  0  0  0  0  0
   -1.1108    1.8537    0.6509 C   0  0  0  0  0  0  0  0  0  0  0  0
    0.7520    0.9995   -0.8264 C   0  0  0  0  0  0  0  0  0  0  0  0
    1.2331    1.9610    1.4153 C   0  0  0  0  0  0  0  0  0  0  0  0
    2.2264    1.3174   -1.0757 C   0  0  0  0  0  0  0  0  0  0  0  0
    2.4188    0.9987    1.4111 C   0  0  0  0  0  0  0  0  0  0  0  0
    4.3808    0.5971   -0.0591 C   0  0  0  0  0  0  0  0  0  0  0  0
   -2.3772   -1.9742    0.9306 C   0  0  0  0  0  0  0  0  0  0  0  0
    5.1385    1.1460   -1.0937 C   0  0  0  0  0  0  0  0  0  0  0  0
    4.9651   -0.3040    0.8311 C   0  0  0  0  0  0  0  0  0  0  0  0
   -1.1385   -2.4829    0.2875 C   0  0  0  0  0  0  0  0  0  0  0  0
    6.4803    0.7937   -1.2383 C   0  0  0  0  0  0  0  0  0  0  0  0
    6.3069   -0.6564    0.6865 C   0  0  0  0  0  0  0  0  0  0  0  0
    7.0645   -0.1076   -0.3483 C   0  0  0  0  0  0  0  0  0  0  0  0
    0.1501   -2.6003    0.7546 C   0  0  0  0  0  0  0  0  0  0  0  0
    0.9047   -3.1512   -0.3084 C   0  0  0  0  0  0  0  0  0  0  0  0
    0.0235   -3.3315   -1.3493 C   0  0  0  0  0  0  0  0  0  0  0  0
   -3.5750    2.7060    0.5233 H   0  0  0  0  0  0  0  0  0  0  0  0
   -4.0988    2.0639   -2.1254 H   0  0  0  0  0  0  0  0  0  0  0  0
   -4.1556   -0.3285   -1.6929 H   0  0  0  0  0  0  0  0  0  0  0  0
   -5.9241    0.2950    0.7454 H   0  0  0  0  0  0  0  0  0  0  0  0
   -1.8363    2.0595   -1.3253 H   0  0  0  0  0  0  0  0  0  0  0  0
   -1.9323    0.3970   -0.6779 H   0  0  0  0  0  0  0  0  0  0  0  0
   -5.5800   -2.1208    0.1473 H   0  0  0  0  0  0  0  0  0  0  0  0
   -4.8485   -1.6804    1.7051 H   0  0  0  0  0  0  0  0  0  0  0  0
    0.1637    1.3280   -1.6872 H   0  0  0  0  0  0  0  0  0  0  0  0
    0.6113   -0.0805   -0.7263 H   0  0  0  0  0  0  0  0  0  0  0  0
    0.7686    1.9800    2.4070 H   0  0  0  0  0  0  0  0  0  0  0  0
    1.5669    2.9815    1.1909 H   0  0  0  0  0  0  0  0  0  0  0  0
    2.5417    0.7652   -1.9695 H   0  0  0  0  0  0  0  0  0  0  0  0
    2.3478    2.3887   -1.2778 H   0  0  0  0  0  0  0  0  0  0  0  0
    3.1362    1.3417    2.1666 H   0  0  0  0  0  0  0  0  0  0  0  0
    2.0818   -0.0067    1.6909 H   0  0  0  0  0  0  0  0  0  0  0  0
   -5.2756    3.4714   -0.8048 H   0  0  0  0  0  0  0  0  0  0  0  0
   -6.0851    0.3876   -2.7218 H   0  0  0  0  0  0  0  0  0  0  0  0
   -3.4786   -2.3726   -0.7921 H   0  0  0  0  0  0  0  0  0  0  0  0
    4.7181    1.8622   -1.7943 H   0  0  0  0  0  0  0  0  0  0  0  0
    4.3986   -0.7601    1.6384 H   0  0  0  0  0  0  0  0  0  0  0  0
    7.0717    1.2232   -2.0417 H   0  0  0  0  0  0  0  0  0  0  0  0
    6.7616   -1.3605    1.3770 H   0  0  0  0  0  0  0  0  0  0  0  0
    0.5064   -2.3223    1.7363 H   0  0  0  0  0  0  0  0  0  0  0  0
    1.9594   -3.3852   -0.3157 H   0  0  0  0  0  0  0  0  0  0  0  0
    0.1220   -3.7149   -2.3542 H   0  0  0  0  0  0  0  0  0  0  0  0
  1 29  1  0  0  0  0
  2 11  1  0  0  0  0
  2 14  1  0  0  0  0
  3 12  1  0  0  0  0
  3 49  1  0  0  0  0
  4 13  1  0  0  0  0
  4 50  1  0  0  0  0
  5 17  2  0  0  0  0
  6 23  2  0  0  0  0
  7 26  1  0  0  0  0
  7 32  1  0  0  0  0
  8 17  1  0  0  0  0
  8 18  1  0  0  0  0
  8 19  1  0  0  0  0
  9 20  1  0  0  0  0
  9 21  1  0  0  0  0
  9 22  1  0  0  0  0
 10 16  1  0  0  0  0
 10 23  1  0  0  0  0
 10 51  1  0  0  0  0
 11 12  1  0  0  0  0
 11 15  1  0  0  0  0
 11 33  1  0  0  0  0
 12 13  1  0  0  0  0
 12 34  1  0  0  0  0
 13 14  1  0  0  0  0
 13 35  1  0  0  0  0
 14 16  1  0  0  0  0
 14 36  1  0  0  0  0
 15 17  1  0  0  0  0
 15 37  1  0  0  0  0
 15 38  1  0  0  0  0
 16 39  1  0  0  0  0
 16 40  1  0  0  0  0
 18 20  1  0  0  0  0
 18 41  1  0  0  0  0
 18 42  1  0  0  0  0
 19 21  1  0  0  0  0
 19 43  1  0  0  0  0
 19 44  1  0  0  0  0
 20 45  1  0  0  0  0
 20 46  1  0  0  0  0
 21 47  1  0  0  0  0
 21 48  1  0  0  0  0
 22 24  2  0  0  0  0
 22 25  1  0  0  0  0
 23 26  1  0  0  0  0
 24 27  1  0  0  0  0
 24 52  1  0  0  0  0
 25 28  2  0  0  0  0
 25 53  1  0  0  0  0
 26 30  2  0  0  0  0
 27 29  2  0  0  0  0
 27 54  1  0  0  0  0
 28 29  1  0  0  0  0
 28 55  1  0  0  0  0
 30 31  1  0  0  0  0
 30 56  1  0  0  0  0
 31 32  2  0  0  0  0
 31 57  1  0  0  0  0
 32 58  1  0  0  0  0
M  END
> <PUBCHEM_COMPOUND_CID>
40778241

> <PUBCHEM_CONFORMER_RMSD>
1

> <PUBCHEM_CONFORMER_DIVERSEORDER>
1
88
200
190
128
205
39
167
157
54
197
89
147
166
161
47
105
48
111
31
213
212
61
12
159
66
158
117
107
106
52
131
56
127
182
210
73
11
68
114
76
195
207
92
172
60
139
33
49
98
185
132
146
203
163
22
202
101
165
70
14
67
129
118
184
43
83
189
148
121
186
123
116
95
100
204
122
175
178
142
109
125
160
10
198
99
28
104
34
183
181
35
53
57
115
156
24
38
192
170
90
137
171
62
40
25
51
16
150
94
19
93
194
30
108
82
45
26
151
77
8
144
50
85
78
74
79
138
65
136
196
124
72
58
169
97
46
84
21
91
191
209
193
5
174
199
153
179
206
75
44
71
143
133
81
149
164
17
23
15
112
130
140
126
37
176
135
32
208
211
188
7
110
102
27
36
103
80
168
113
64
96
162
41
173
18
4
87
119
154
42
63
20
180
201
9
6
69
55
3
134
2
145
155
59
86
141
29
187
152
120
13
177

> <PUBCHEM_MMFF94_PARTIAL_CHARGES>
42
1 -0.19
10 -0.73
11 0.28
12 0.28
13 0.28
14 0.28
15 0.06
16 0.3
17 0.57
18 0.3
19 0.3
2 -0.56
20 0.37
21 0.37
22 0.1
23 0.71
24 -0.15
25 -0.15
26 0.05
27 -0.15
28 -0.15
29 0.19
3 -0.68
30 -0.15
31 -0.15
32 -0.01
4 -0.68
49 0.4
5 -0.57
50 0.4
51 0.37
52 0.15
53 0.15
54 0.15
55 0.15
56 0.15
57 0.15
58 0.15
6 -0.57
7 -0.28
8 -0.66
9 -0.84

> <PUBCHEM_EFFECTIVE_ROTOR_COUNT>
10.2

> <PUBCHEM_PHARMACOPHORE_FEATURES>
14
1 10 donor
1 2 acceptor
1 3 acceptor
1 3 donor
1 4 acceptor
1 4 donor
1 5 acceptor
1 6 acceptor
1 7 acceptor
1 9 cation
5 2 11 12 13 14 rings
5 7 26 30 31 32 rings
6 22 24 25 27 28 29 rings
6 8 9 18 19 20 21 rings

> <PUBCHEM_HEAVY_ATOM_COUNT>
32

> <PUBCHEM_ATOM_DEF_STEREO_COUNT>
4

> <PUBCHEM_ATOM_UDEF_STEREO_COUNT>
0

> <PUBCHEM_BOND_DEF_STEREO_COUNT>
0

> <PUBCHEM_BOND_UDEF_STEREO_COUNT>
0

> <PUBCHEM_ISOTOPIC_ATOM_COUNT>
0

> <PUBCHEM_COMPONENT_COUNT>
1

> <PUBCHEM_CACTVS_TAUTO_COUNT>
2

> <PUBCHEM_CONFORMER_ID>
026E3A0100000001

> <PUBCHEM_MMFF94_ENERGY>
79.1333

> <PUBCHEM_FEATURE_SELFOVERLAP>
71.062

> <PUBCHEM_SHAPE_FINGERPRINT>
10675989 125 17253986451718852493
107951 10 17749108893983852787
11135926 11 18341049602028406381
11524674 6 18202280299104442214
11578080 2 16807267156981065063
11763715 3 17181387317691282510
12788726 201 18129942269894161736
13402501 40 18413392037806696942
14251757 5 18264777730229140234
14931854 50 18341038641361310781
15183329 4 17894627054691154704
15439362 3 17901383394957408517
16719943 64 18410294739775178186
18608769 82 18334299790925150827
18681886 176 18335414690593131912
19958102 18 18410017611473728214
20511986 3 18114176480512313288
20721686 56 18410016494276361451
21344244 246 18342451500728736127
23559900 14 18339920549172937752
3298306 158 18411692175992937131
3383291 50 18202280329480929806
338550 245 18333736831954540110
373842 8 18267021661911276066
4015057 19 17560513031435905057
4093350 32 16987731099526700055
5085150 59 18341887477159869906
508706 21 18339366361079199495
5265222 85 18336835311392735340
57527295 17 17915442927936553349
59755656 215 18342737395252817134
6437827 68 18409450289174975442
7226269 152 18272373083286074004

> <PUBCHEM_SHAPE_MULTIPOLES>
601.11
16.37
3.49
1.5
20.99
2.58
-0.11
-3.4
4.6
-2.9
0.16
-0.52
-0.12
0.52

> <PUBCHEM_SHAPE_SELFOVERLAP>
1286.42

> <PUBCHEM_SHAPE_VOLUME>
332.6

> <PUBCHEM_COORDINATE_TYPE>
2
5
10

$$$$
