75536401
  -OEChem-12032416303D

 58 61  0     1  0  0  0  0  0999 V2000
   -3.5758    1.2882   -2.1976 Cl  0  0  0  0  0  0  0  0  0  0  0  0
    3.4638   -0.4169    0.9262 O   0  0  0  0  0  0  0  0  0  0  0  0
    6.2122    0.0855    1.8653 O   0  0  0  0  0  0  0  0  0  0  0  0
   -0.4140   -2.2250   -1.4661 O   0  0  0  0  0  0  0  0  0  0  0  0
   -6.0832   -0.8714    0.9075 O   0  0  0  0  0  0  0  0  0  0  0  0
    2.0394    1.9544    0.2429 N   0  0  0  0  0  0  0  0  0  0  0  0
    0.9495   -2.4659   -1.5835 N   0  0  0  0  0  0  0  0  0  0  0  0
    4.1214    0.8568    0.9455 C   0  0  1  0  0  0  0  0  0  0  0  0
    5.6313    0.7092    0.7170 C   0  0  2  0  0  0  0  0  0  0  0  0
    3.6787   -1.1944   -0.2542 C   0  0  1  0  0  0  0  0  0  0  0  0
    5.9534   -0.1582   -0.4968 C   0  0  0  0  0  0  0  0  0  0  0  0
    5.1685   -1.4663   -0.4565 C   0  0  0  0  0  0  0  0  0  0  0  0
    3.4631    1.8309   -0.0293 C   0  0  0  0  0  0  0  0  0  0  0  0
    2.9065   -2.4980   -0.0912 C   0  0  0  0  0  0  0  0  0  0  0  0
    1.4354   -2.3106   -0.3487 C   0  0  0  0  0  0  0  0  0  0  0  0
    1.3306    2.4885   -0.9130 C   0  0  0  0  0  0  0  0  0  0  0  0
    0.4354   -1.9747    0.5801 C   0  0  0  0  0  0  0  0  0  0  0  0
   -0.1439    2.6370   -0.6469 C   0  0  0  0  0  0  0  0  0  0  0  0
   -0.7080   -1.9335   -0.1731 C   0  0  0  0  0  0  0  0  0  0  0  0
   -2.0882   -1.6616    0.1052 C   0  0  0  0  0  0  0  0  0  0  0  0
   -1.0685    1.9707   -1.4512 C   0  0  0  0  0  0  0  0  0  0  0  0
   -0.5852    3.4415    0.4036 C   0  0  0  0  0  0  0  0  0  0  0  0
   -2.4330   -0.7914    1.1394 C   0  0  0  0  0  0  0  0  0  0  0  0
   -3.0861   -2.2668   -0.6588 C   0  0  0  0  0  0  0  0  0  0  0  0
   -2.4344    2.1090   -1.2050 C   0  0  0  0  0  0  0  0  0  0  0  0
   -1.9511    3.5797    0.6498 C   0  0  0  0  0  0  0  0  0  0  0  0
   -2.8758    2.9136   -0.1545 C   0  0  0  0  0  0  0  0  0  0  0  0
   -3.7755   -0.5265    1.4097 C   0  0  0  0  0  0  0  0  0  0  0  0
   -4.4286   -2.0021   -0.3886 C   0  0  0  0  0  0  0  0  0  0  0  0
   -4.7733   -1.1319    0.6458 C   0  0  0  0  0  0  0  0  0  0  0  0
   -6.3646    0.0303    1.9771 C   0  0  0  0  0  0  0  0  0  0  0  0
    3.9715    1.2396    1.9637 H   0  0  0  0  0  0  0  0  0  0  0  0
    6.1000    1.6945    0.6178 H   0  0  0  0  0  0  0  0  0  0  0  0
    3.2902   -0.6526   -1.1247 H   0  0  0  0  0  0  0  0  0  0  0  0
    7.0247   -0.3878   -0.5326 H   0  0  0  0  0  0  0  0  0  0  0  0
    5.7068    0.3839   -1.4171 H   0  0  0  0  0  0  0  0  0  0  0  0
    5.3360   -2.0278   -1.3826 H   0  0  0  0  0  0  0  0  0  0  0  0
    5.5483   -2.0801    0.3702 H   0  0  0  0  0  0  0  0  0  0  0  0
    3.6256    1.4914   -1.0580 H   0  0  0  0  0  0  0  0  0  0  0  0
    3.9345    2.8168    0.0594 H   0  0  0  0  0  0  0  0  0  0  0  0
    3.0394   -2.9015    0.9208 H   0  0  0  0  0  0  0  0  0  0  0  0
    3.2819   -3.2545   -0.7924 H   0  0  0  0  0  0  0  0  0  0  0  0
    1.6578    1.0345    0.4658 H   0  0  0  0  0  0  0  0  0  0  0  0
    7.1732    0.0440    1.7225 H   0  0  0  0  0  0  0  0  0  0  0  0
    1.4836    1.8343   -1.7808 H   0  0  0  0  0  0  0  0  0  0  0  0
    1.7267    3.4761   -1.1822 H   0  0  0  0  0  0  0  0  0  0  0  0
    0.5363   -1.7916    1.6400 H   0  0  0  0  0  0  0  0  0  0  0  0
   -0.7259    1.3411   -2.2693 H   0  0  0  0  0  0  0  0  0  0  0  0
    0.1227    3.9716    1.0353 H   0  0  0  0  0  0  0  0  0  0  0  0
   -1.6721   -0.3028    1.7435 H   0  0  0  0  0  0  0  0  0  0  0  0
   -2.8467   -2.9542   -1.4665 H   0  0  0  0  0  0  0  0  0  0  0  0
   -2.2949    4.2066    1.4674 H   0  0  0  0  0  0  0  0  0  0  0  0
   -3.9371    3.0295    0.0498 H   0  0  0  0  0  0  0  0  0  0  0  0
   -3.9725    0.1613    2.2248 H   0  0  0  0  0  0  0  0  0  0  0  0
   -5.2017   -2.4767   -0.9866 H   0  0  0  0  0  0  0  0  0  0  0  0
   -7.4536    0.1220    2.0444 H   0  0  0  0  0  0  0  0  0  0  0  0
   -5.9713    1.0319    1.7724 H   0  0  0  0  0  0  0  0  0  0  0  0
   -6.0167   -0.3640    2.9379 H   0  0  0  0  0  0  0  0  0  0  0  0
  1 25  1  0  0  0  0
  2  8  1  0  0  0  0
  2 10  1  0  0  0  0
  3  9  1  0  0  0  0
  3 44  1  0  0  0  0
  4  7  1  0  0  0  0
  4 19  1  0  0  0  0
  5 30  1  0  0  0  0
  5 31  1  0  0  0  0
  6 13  1  0  0  0  0
  6 16  1  0  0  0  0
  6 43  1  0  0  0  0
  7 15  2  0  0  0  0
  8  9  1  0  0  0  0
  8 13  1  0  0  0  0
  8 32  1  0  0  0  0
  9 11  1  0  0  0  0
  9 33  1  0  0  0  0
 10 12  1  0  0  0  0
 10 14  1  0  0  0  0
 10 34  1  0  0  0  0
 11 12  1  0  0  0  0
 11 35  1  0  0  0  0
 11 36  1  0  0  0  0
 12 37  1  0  0  0  0
 12 38  1  0  0  0  0
 13 39  1  0  0  0  0
 13 40  1  0  0  0  0
 14 15  1  0  0  0  0
 14 41  1  0  0  0  0
 14 42  1  0  0  0  0
 15 17  1  0  0  0  0
 16 18  1  0  0  0  0
 16 45  1  0  0  0  0
 16 46  1  0  0  0  0
 17 19  2  0  0  0  0
 17 47  1  0  0  0  0
 18 21  2  0  0  0  0
 18 22  1  0  0  0  0
 19 20  1  0  0  0  0
 20 23  2  0  0  0  0
 20 24  1  0  0  0  0
 21 25  1  0  0  0  0
 21 48  1  0  0  0  0
 22 26  2  0  0  0  0
 22 49  1  0  0  0  0
 23 28  1  0  0  0  0
 23 50  1  0  0  0  0
 24 29  2  0  0  0  0
 24 51  1  0  0  0  0
 25 27  2  0  0  0  0
 26 27  1  0  0  0  0
 26 52  1  0  0  0  0
 27 53  1  0  0  0  0
 28 30  2  0  0  0  0
 28 54  1  0  0  0  0
 29 30  1  0  0  0  0
 29 55  1  0  0  0  0
 31 56  1  0  0  0  0
 31 57  1  0  0  0  0
 31 58  1  0  0  0  0
M  END
> <PUBCHEM_COMPOUND_CID>
75536401

> <PUBCHEM_CONFORMER_RMSD>
1.2

> <PUBCHEM_CONFORMER_DIVERSEORDER>
1
114
27
88
55
103
86
99
45
124
13
115
90
67
76
39
71
61
126
94
4
83
65
18
118
30
15
33
64
74
112
58
34
70
102
75
92
120
43
42
69
44
56
108
96
26
77
17
50
109
66
41
62
22
54
2
40
73
35
85
52
123
101
49
23
68
122
79
125
106
25
47
46
63
104
10
29
100
89
117
97
31
51
113
121
107
80
53
95
93
87
82
12
16
38
48
19
119
110
59
3
57
21
72
105
78
84
81
98
28
37
36
111
20
14
91
5
11
116
60
24
32
9
7
8
6

> <PUBCHEM_MMFF94_PARTIAL_CHARGES>
40
1 -0.18
10 0.28
13 0.27
14 0.18
15 0.11
16 0.41
17 -0.15
18 -0.14
19 0.09
2 -0.56
20 0.05
21 -0.15
22 -0.15
23 -0.15
24 -0.15
25 0.18
26 -0.15
27 -0.15
28 -0.15
29 -0.15
3 -0.68
30 0.08
31 0.28
4 -0.02
43 0.36
44 0.4
47 0.15
48 0.15
49 0.15
5 -0.36
50 0.15
51 0.15
52 0.15
53 0.15
54 0.15
55 0.15
6 -0.9
7 -0.41
8 0.28
9 0.28

> <PUBCHEM_EFFECTIVE_ROTOR_COUNT>
9.2

> <PUBCHEM_PHARMACOPHORE_FEATURES>
11
1 2 acceptor
1 3 acceptor
1 3 donor
1 5 acceptor
1 6 cation
1 6 donor
1 7 acceptor
5 4 7 15 17 19 rings
6 18 21 22 25 26 27 rings
6 2 8 9 10 11 12 rings
6 20 23 24 28 29 30 rings

> <PUBCHEM_HEAVY_ATOM_COUNT>
31

> <PUBCHEM_ATOM_DEF_STEREO_COUNT>
3

> <PUBCHEM_ATOM_UDEF_STEREO_COUNT>
0

> <PUBCHEM_BOND_DEF_STEREO_COUNT>
0

> <PUBCHEM_BOND_UDEF_STEREO_COUNT>
0

> <PUBCHEM_ISOTOPIC_ATOM_COUNT>
0

> <PUBCHEM_COMPONENT_COUNT>
1

> <PUBCHEM_CACTVS_TAUTO_COUNT>
1

> <PUBCHEM_CONFORMER_ID>
0480981100000001

> <PUBCHEM_MMFF94_ENERGY>
69.559

> <PUBCHEM_FEATURE_SELFOVERLAP>
55.824

> <PUBCHEM_SHAPE_FINGERPRINT>
10006869 2 18192704554123929587
10290309 65 18116148879491996283
10670039 82 18262252049394500934
10939801 23 18264771142103229768
11513181 2 17915730986222150398
12107698 1 18187642531396021856
12156800 1 17980237160075305788
12293681 4 18115310106791236266
12422481 6 18409740560313228457
13075007 39 17752508687300812539
13140716 1 18120374521525166610
13402501 40 18409449180503551537
14394314 77 18268438021312576809
14790565 3 17110729419341097692
14840074 17 18339651138663551595
15001296 14 18117844532527300260
15840311 113 17415026590359010019
17980427 23 17988650727000830255
20764821 26 18337393729796820108
21033648 144 18201714076866612638
21360443 126 17969215647245334853
21796203 349 17974041562514287104
3052486 1 18260548892887189292
338550 245 18334303075552090340
350125 39 18411143536712472372
392239 28 18411132549964375439
463206 1 18192715759292412059
469060 322 16805897190760954111
508706 21 18335977601722347550
56638632 10 17915730066888385641
57828716 16 15574720175736771453
653340 110 18341613664241252872

> <PUBCHEM_SHAPE_MULTIPOLES>
606.4
13.03
4.32
1.57
6.08
2.43
-0.1
-3.22
5.42
-1.72
-0.84
-1.18
0.16
1.1

> <PUBCHEM_SHAPE_SELFOVERLAP>
1287.247

> <PUBCHEM_SHAPE_VOLUME>
339

> <PUBCHEM_COORDINATE_TYPE>
2
5
10

$$$$
