51138105
  -OEChem-12032416233D

 69 73  0     1  0  0  0  0  0999 V2000
   -3.6612    0.2432   -1.9645 O   0  0  0  0  0  0  0  0  0  0  0  0
    6.0502    0.9602   -1.8673 O   0  0  0  0  0  0  0  0  0  0  0  0
   -1.8101   -1.1551   -0.7200 N   0  0  0  0  0  0  0  0  0  0  0  0
   -3.9964    1.5502   -0.0673 N   0  0  0  0  0  0  0  0  0  0  0  0
    2.5112    1.0544    0.6755 N   0  0  0  0  0  0  0  0  0  0  0  0
    6.8390    0.4791   -0.8294 N   0  0  0  0  0  0  0  0  0  0  0  0
   -1.1895   -2.0701    0.2474 C   0  0  2  0  0  0  0  0  0  0  0  0
   -5.2478    2.1501   -0.4595 C   0  0  0  0  0  0  0  0  0  0  0  0
   -2.0281    0.1966   -0.2251 C   0  0  1  0  0  0  0  0  0  0  0  0
   -6.4440    1.3561    0.0519 C   0  0  0  0  0  0  0  0  0  0  0  0
   -5.4455    3.5139    0.1898 C   0  0  0  0  0  0  0  0  0  0  0  0
   -0.9033    1.1382   -0.6513 C   0  0  0  0  0  0  0  0  0  0  0  0
    0.2333   -1.7127    0.6889 C   0  0  0  0  0  0  0  0  0  0  0  0
    0.8504   -0.4399    0.5169 C   0  0  0  0  0  0  0  0  0  0  0  0
    0.4206    0.8119   -0.0453 C   0  0  0  0  0  0  0  0  0  0  0  0
   -6.6503    1.8340    1.4882 C   0  0  0  0  0  0  0  0  0  0  0  0
   -5.9722    3.2007    1.5874 C   0  0  0  0  0  0  0  0  0  0  0  0
   -1.2699   -3.4550   -0.4198 C   0  0  0  0  0  0  0  0  0  0  0  0
   -3.3097    0.6449   -0.8583 C   0  0  0  0  0  0  0  0  0  0  0  0
    2.1560   -0.2385    0.9792 C   0  0  0  0  0  0  0  0  0  0  0  0
   -2.6713   -4.0699   -0.3548 C   0  0  0  0  0  0  0  0  0  0  0  0
    1.4746    1.6963    0.0653 C   0  0  0  0  0  0  0  0  0  0  0  0
    0.9888   -2.6834    1.3949 C   0  0  0  0  0  0  0  0  0  0  0  0
    2.9011   -1.2226    1.6311 C   0  0  0  0  0  0  0  0  0  0  0  0
    3.7878    1.6690    0.9709 C   0  0  0  0  0  0  0  0  0  0  0  0
    2.2874   -2.4503    1.8436 C   0  0  0  0  0  0  0  0  0  0  0  0
   -2.6414   -5.4622   -0.9896 C   0  0  0  0  0  0  0  0  0  0  0  0
   -3.7260   -3.2076   -1.0498 C   0  0  0  0  0  0  0  0  0  0  0  0
    4.8762    1.2824    0.0006 C   0  0  0  0  0  0  0  0  0  0  0  0
    4.8841    1.4360   -1.3606 C   0  0  0  0  0  0  0  0  0  0  0  0
    6.1170    0.6822    0.2763 C   0  0  0  0  0  0  0  0  0  0  0  0
    3.9278    1.9860   -2.3303 C   0  0  0  0  0  0  0  0  0  0  0  0
    6.6613    0.2819    1.5847 C   0  0  0  0  0  0  0  0  0  0  0  0
   -1.7973   -2.0895    1.1624 H   0  0  0  0  0  0  0  0  0  0  0  0
   -5.2675    2.2258   -1.5521 H   0  0  0  0  0  0  0  0  0  0  0  0
   -2.1520    0.1998    0.8660 H   0  0  0  0  0  0  0  0  0  0  0  0
   -6.3036    0.2718   -0.0012 H   0  0  0  0  0  0  0  0  0  0  0  0
   -7.3328    1.6085   -0.5395 H   0  0  0  0  0  0  0  0  0  0  0  0
   -6.2054    4.0800   -0.3630 H   0  0  0  0  0  0  0  0  0  0  0  0
   -4.5327    4.1172    0.2220 H   0  0  0  0  0  0  0  0  0  0  0  0
   -1.1727    2.1668   -0.3748 H   0  0  0  0  0  0  0  0  0  0  0  0
   -0.7979    1.1432   -1.7453 H   0  0  0  0  0  0  0  0  0  0  0  0
   -1.2919   -1.1472   -1.5977 H   0  0  0  0  0  0  0  0  0  0  0  0
   -7.7152    1.8908    1.7360 H   0  0  0  0  0  0  0  0  0  0  0  0
   -6.1867    1.1364    2.1951 H   0  0  0  0  0  0  0  0  0  0  0  0
   -5.1449    3.1532    2.3051 H   0  0  0  0  0  0  0  0  0  0  0  0
   -6.6632    3.9745    1.9369 H   0  0  0  0  0  0  0  0  0  0  0  0
   -0.5955   -4.1761    0.0508 H   0  0  0  0  0  0  0  0  0  0  0  0
   -0.9234   -3.4000   -1.4626 H   0  0  0  0  0  0  0  0  0  0  0  0
   -3.6260    1.7826    0.8499 H   0  0  0  0  0  0  0  0  0  0  0  0
   -2.9629   -4.1906    0.6963 H   0  0  0  0  0  0  0  0  0  0  0  0
    1.5551    2.7316   -0.2391 H   0  0  0  0  0  0  0  0  0  0  0  0
    0.5548   -3.6496    1.6418 H   0  0  0  0  0  0  0  0  0  0  0  0
    3.9067   -1.0432    1.9911 H   0  0  0  0  0  0  0  0  0  0  0  0
    4.0511    1.4068    2.0011 H   0  0  0  0  0  0  0  0  0  0  0  0
    3.6555    2.7577    0.9480 H   0  0  0  0  0  0  0  0  0  0  0  0
    2.8210   -3.2329    2.3764 H   0  0  0  0  0  0  0  0  0  0  0  0
   -3.6214   -5.9456   -0.9148 H   0  0  0  0  0  0  0  0  0  0  0  0
   -2.3699   -5.4109   -2.0496 H   0  0  0  0  0  0  0  0  0  0  0  0
   -1.9159   -6.1081   -0.4837 H   0  0  0  0  0  0  0  0  0  0  0  0
   -4.6570   -3.7742   -1.1716 H   0  0  0  0  0  0  0  0  0  0  0  0
   -3.9935   -2.3322   -0.4520 H   0  0  0  0  0  0  0  0  0  0  0  0
   -3.4082   -2.8958   -2.0501 H   0  0  0  0  0  0  0  0  0  0  0  0
    3.4949    2.9221   -1.9652 H   0  0  0  0  0  0  0  0  0  0  0  0
    4.4136    2.1999   -3.2879 H   0  0  0  0  0  0  0  0  0  0  0  0
    3.1176    1.2750   -2.5175 H   0  0  0  0  0  0  0  0  0  0  0  0
    6.2995   -0.7124    1.8633 H   0  0  0  0  0  0  0  0  0  0  0  0
    7.7561    0.2471    1.5675 H   0  0  0  0  0  0  0  0  0  0  0  0
    6.3723    0.9871    2.3701 H   0  0  0  0  0  0  0  0  0  0  0  0
  1 19  2  0  0  0  0
  2  6  1  0  0  0  0
  2 30  1  0  0  0  0
  3  7  1  0  0  0  0
  3  9  1  0  0  0  0
  3 43  1  0  0  0  0
  4  8  1  0  0  0  0
  4 19  1  0  0  0  0
  4 50  1  0  0  0  0
  5 20  1  0  0  0  0
  5 22  1  0  0  0  0
  5 25  1  0  0  0  0
  6 31  2  0  0  0  0
  7 13  1  0  0  0  0
  7 18  1  0  0  0  0
  7 34  1  0  0  0  0
  8 10  1  0  0  0  0
  8 11  1  0  0  0  0
  8 35  1  0  0  0  0
  9 12  1  0  0  0  0
  9 19  1  0  0  0  0
  9 36  1  0  0  0  0
 10 16  1  0  0  0  0
 10 37  1  0  0  0  0
 10 38  1  0  0  0  0
 11 17  1  0  0  0  0
 11 39  1  0  0  0  0
 11 40  1  0  0  0  0
 12 15  1  0  0  0  0
 12 41  1  0  0  0  0
 12 42  1  0  0  0  0
 13 14  2  0  0  0  0
 13 23  1  0  0  0  0
 14 15  1  0  0  0  0
 14 20  1  0  0  0  0
 15 22  2  0  0  0  0
 16 17  1  0  0  0  0
 16 44  1  0  0  0  0
 16 45  1  0  0  0  0
 17 46  1  0  0  0  0
 17 47  1  0  0  0  0
 18 21  1  0  0  0  0
 18 48  1  0  0  0  0
 18 49  1  0  0  0  0
 20 24  2  0  0  0  0
 21 27  1  0  0  0  0
 21 28  1  0  0  0  0
 21 51  1  0  0  0  0
 22 52  1  0  0  0  0
 23 26  2  0  0  0  0
 23 53  1  0  0  0  0
 24 26  1  0  0  0  0
 24 54  1  0  0  0  0
 25 29  1  0  0  0  0
 25 55  1  0  0  0  0
 25 56  1  0  0  0  0
 26 57  1  0  0  0  0
 27 58  1  0  0  0  0
 27 59  1  0  0  0  0
 27 60  1  0  0  0  0
 28 61  1  0  0  0  0
 28 62  1  0  0  0  0
 28 63  1  0  0  0  0
 29 30  2  0  0  0  0
 29 31  1  0  0  0  0
 30 32  1  0  0  0  0
 31 33  1  0  0  0  0
 32 64  1  0  0  0  0
 32 65  1  0  0  0  0
 32 66  1  0  0  0  0
 33 67  1  0  0  0  0
 33 68  1  0  0  0  0
 33 69  1  0  0  0  0
M  END
> <PUBCHEM_COMPOUND_CID>
51138105

> <PUBCHEM_CONFORMER_RMSD>
1

> <PUBCHEM_CONFORMER_DIVERSEORDER>
4
28
21
48
187
100
239
208
54
82
63
10
109
174
229
121
75
172
71
254
106
22
38
243
244
97
29
251
83
158
219
231
81
42
151
141
224
99
136
108
164
225
233
16
218
39
215
188
176
66
103
18
192
249
14
257
58
56
24
145
190
173
91
160
88
198
146
194
186
230
168
199
248
86
221
9
183
159
161
80
162
105
30
115
143
237
35
40
124
144
59
240
70
20
120
73
51
210
226
64
26
104
142
175
90
127
197
177
256
165
23
163
245
195
119
1
207
101
34
134
252
236
78
98
169
250
181
170
152
44
139
57
193
15
247
130
196
137
222
180
228
206
184
140
185
96
49
37
50
53
67
3
171
69
2
191
25
179
61
118
45
13
217
201
138
102
68
31
107
205
87
7
150
76
46
128
65
33
220
84
60
166
27
212
242
62
77
92
213
85
132
246
235
255
12
209
32
112
111
202
79
55
234
47
74
147
94
8
17
241
216
227
36
155
126
182
116
52
203
167
110
122
95
5
156
149
43
133
41
113
238
148
123
178
89
232
129
253
19
214
125
135
211
117
93
223
131
157
204
153
72
6
200
154
114
189
11

> <PUBCHEM_MMFF94_PARTIAL_CHARGES>
30
1 -0.57
12 0.18
13 -0.14
15 -0.18
19 0.57
2 -0.02
20 -0.15
22 -0.3
23 -0.15
24 -0.15
25 0.44
26 -0.15
29 -0.18
3 -0.9
30 -0.04
31 0.11
32 0.18
33 0.18
4 -0.73
43 0.36
5 0.05
50 0.37
52 0.15
53 0.15
54 0.15
57 0.15
6 -0.41
7 0.41
8 0.3
9 0.33

> <PUBCHEM_EFFECTIVE_ROTOR_COUNT>
8.8

> <PUBCHEM_PHARMACOPHORE_FEATURES>
12
1 1 acceptor
1 3 cation
1 3 donor
1 4 donor
1 5 cation
1 6 acceptor
3 21 27 28 hydrophobe
5 2 6 29 30 31 rings
5 5 14 15 20 22 rings
5 8 10 11 16 17 rings
6 13 14 20 23 24 26 rings
7 3 7 9 12 13 14 15 rings

> <PUBCHEM_HEAVY_ATOM_COUNT>
33

> <PUBCHEM_ATOM_DEF_STEREO_COUNT>
2

> <PUBCHEM_ATOM_UDEF_STEREO_COUNT>
0

> <PUBCHEM_BOND_DEF_STEREO_COUNT>
0

> <PUBCHEM_BOND_UDEF_STEREO_COUNT>
0

> <PUBCHEM_ISOTOPIC_ATOM_COUNT>
0

> <PUBCHEM_COMPONENT_COUNT>
1

> <PUBCHEM_CACTVS_TAUTO_COUNT>
2

> <PUBCHEM_CONFORMER_ID>
030C4E3900000004

> <PUBCHEM_MMFF94_ENERGY>
61.7036

> <PUBCHEM_FEATURE_SELFOVERLAP>
61.027

> <PUBCHEM_SHAPE_FINGERPRINT>
10674148 151 18131354069084600624
10794284 68 15724229691658102762
11331351 85 17695631045655193991
11445158 3 17899122820024429999
12390115 104 18341896290595823955
12788726 201 17903644330060459231
12954195 1 18339640169365096311
13540713 5 18116129186776722906
14294032 229 18260259729281404164
14347332 77 18122620815175331046
14790565 3 18339359652477322281
14856354 85 17385737902085902729
15183329 4 16415201122514561517
15297060 5 18341607110326614986
15927050 60 18413386523433303167
16112460 7 18337101294412002843
19311894 1 18340205296951202709
19319366 153 17968373455507948354
20739085 24 18119250567370527205
21033648 144 18115301173612382677
21756936 100 18343858927314868101
21814621 53 17703789249922797650
25147074 1 18114726209918315250
283562 15 17902778996971489795
3178227 256 18046909273193688331
3411729 13 18189058599077208233
3610482 184 18042421277509285676
38570 142 18201727206565350617
4058900 60 18197787605079634897
4093350 32 17916865704145107190
4340502 62 16226053249668903336
444735 79 17968677007439214363
44880568 143 18268721683366521268
5252454 2 18334283267210192237
563151 40 18334582360174640283
59755656 520 18412261736006736597
613672 6 9799405667810252157
9658208 31 18343015618628022536
9896288 288 18410300246329459955

> <PUBCHEM_SHAPE_MULTIPOLES>
647.46
16.42
5.18
1.73
2.94
7.18
0.18
-16.46
-0.66
-8.99
0.62
1.28
-0.21
-3.92

> <PUBCHEM_SHAPE_SELFOVERLAP>
1392.621

> <PUBCHEM_SHAPE_VOLUME>
360.6

> <PUBCHEM_COORDINATE_TYPE>
2
5
10

$$$$
