75368469
  -OEChem-12032416393D

 51 53  0     1  0  0  0  0  0999 V2000
   -1.0963    3.1527   -0.2109 O   0  0  0  0  0  0  0  0  0  0  0  0
    5.0947    0.3688   -1.5257 O   0  0  0  0  0  0  0  0  0  0  0  0
   -6.0154   -1.8154   -1.3540 O   0  0  0  0  0  0  0  0  0  0  0  0
    0.7548    1.7189   -0.0151 N   0  0  0  0  0  0  0  0  0  0  0  0
   -1.0868    1.2524    1.1854 N   0  0  0  0  0  0  0  0  0  0  0  0
    2.8933    0.1427   -0.8381 N   0  0  0  0  0  0  0  0  0  0  0  0
    4.6048   -1.2278    0.0455 N   0  0  0  0  0  0  0  0  0  0  0  0
    1.1318    0.5824    0.8092 C   0  0  1  0  0  0  0  0  0  0  0  0
   -0.1843    0.1446    1.4462 C   0  0  0  0  0  0  0  0  0  0  0  0
    1.8156   -0.4820   -0.0436 C   0  0  0  0  0  0  0  0  0  0  0  0
    1.7265    2.3147   -0.9161 C   0  0  0  0  0  0  0  0  0  0  0  0
    2.4302    1.2240   -1.7231 C   0  0  0  0  0  0  0  0  0  0  0  0
   -0.5439    2.1685    0.2626 C   0  0  0  0  0  0  0  0  0  0  0  0
   -2.4296    1.2884    1.7209 C   0  0  0  0  0  0  0  0  0  0  0  0
    4.2538   -0.2012   -0.8221 C   0  0  0  0  0  0  0  0  0  0  0  0
   -3.3825    0.4644    0.9039 C   0  0  0  0  0  0  0  0  0  0  0  0
    5.9682   -1.6905    0.1781 C   0  0  0  0  0  0  0  0  0  0  0  0
   -3.8115   -0.7765    1.3750 C   0  0  0  0  0  0  0  0  0  0  0  0
   -3.8384    0.9391   -0.3259 C   0  0  0  0  0  0  0  0  0  0  0  0
    6.7078   -0.8792    1.2346 C   0  0  0  0  0  0  0  0  0  0  0  0
    5.9931   -3.1776    0.5068 C   0  0  0  0  0  0  0  0  0  0  0  0
   -4.6965   -1.5426    0.6165 C   0  0  0  0  0  0  0  0  0  0  0  0
   -4.7234    0.1731   -1.0845 C   0  0  0  0  0  0  0  0  0  0  0  0
   -5.1526   -1.0677   -0.6133 C   0  0  0  0  0  0  0  0  0  0  0  0
   -6.4133   -3.0743   -0.8124 C   0  0  0  0  0  0  0  0  0  0  0  0
    1.8214    0.9616    1.5741 H   0  0  0  0  0  0  0  0  0  0  0  0
   -0.5963   -0.7575    0.9824 H   0  0  0  0  0  0  0  0  0  0  0  0
   -0.0849   -0.0119    2.5245 H   0  0  0  0  0  0  0  0  0  0  0  0
    2.1533   -1.3040    0.5855 H   0  0  0  0  0  0  0  0  0  0  0  0
    1.1109   -0.9100   -0.7682 H   0  0  0  0  0  0  0  0  0  0  0  0
    2.4492    2.8533   -0.2927 H   0  0  0  0  0  0  0  0  0  0  0  0
    1.2316    3.0392   -1.5699 H   0  0  0  0  0  0  0  0  0  0  0  0
    1.7341    0.7727   -2.4404 H   0  0  0  0  0  0  0  0  0  0  0  0
    3.2579    1.6565   -2.2929 H   0  0  0  0  0  0  0  0  0  0  0  0
   -2.7766    2.3289    1.7264 H   0  0  0  0  0  0  0  0  0  0  0  0
   -2.3981    0.9576    2.7653 H   0  0  0  0  0  0  0  0  0  0  0  0
    3.9425   -1.5918    0.7159 H   0  0  0  0  0  0  0  0  0  0  0  0
    6.4769   -1.5465   -0.7827 H   0  0  0  0  0  0  0  0  0  0  0  0
   -3.4614   -1.1581    2.3306 H   0  0  0  0  0  0  0  0  0  0  0  0
   -3.5189    1.9059   -0.7039 H   0  0  0  0  0  0  0  0  0  0  0  0
    6.2289   -0.9754    2.2154 H   0  0  0  0  0  0  0  0  0  0  0  0
    6.7169    0.1855    0.9768 H   0  0  0  0  0  0  0  0  0  0  0  0
    7.7467   -1.2122    1.3278 H   0  0  0  0  0  0  0  0  0  0  0  0
    5.4935   -3.3835    1.4601 H   0  0  0  0  0  0  0  0  0  0  0  0
    5.4758   -3.7547   -0.2674 H   0  0  0  0  0  0  0  0  0  0  0  0
    7.0217   -3.5469    0.5743 H   0  0  0  0  0  0  0  0  0  0  0  0
   -4.9885   -2.4968    1.0415 H   0  0  0  0  0  0  0  0  0  0  0  0
   -5.0761    0.5486   -2.0412 H   0  0  0  0  0  0  0  0  0  0  0  0
   -7.0997   -3.5331   -1.5317 H   0  0  0  0  0  0  0  0  0  0  0  0
   -6.9670   -2.9523    0.1247 H   0  0  0  0  0  0  0  0  0  0  0  0
   -5.5610   -3.7538   -0.7057 H   0  0  0  0  0  0  0  0  0  0  0  0
  1 13  2  0  0  0  0
  2 15  2  0  0  0  0
  3 24  1  0  0  0  0
  3 25  1  0  0  0  0
  4  8  1  0  0  0  0
  4 11  1  0  0  0  0
  4 13  1  0  0  0  0
  5  9  1  0  0  0  0
  5 13  1  0  0  0  0
  5 14  1  0  0  0  0
  6 10  1  0  0  0  0
  6 12  1  0  0  0  0
  6 15  1  0  0  0  0
  7 15  1  0  0  0  0
  7 17  1  0  0  0  0
  7 37  1  0  0  0  0
  8  9  1  0  0  0  0
  8 10  1  0  0  0  0
  8 26  1  0  0  0  0
  9 27  1  0  0  0  0
  9 28  1  0  0  0  0
 10 29  1  0  0  0  0
 10 30  1  0  0  0  0
 11 12  1  0  0  0  0
 11 31  1  0  0  0  0
 11 32  1  0  0  0  0
 12 33  1  0  0  0  0
 12 34  1  0  0  0  0
 14 16  1  0  0  0  0
 14 35  1  0  0  0  0
 14 36  1  0  0  0  0
 16 18  2  0  0  0  0
 16 19  1  0  0  0  0
 17 20  1  0  0  0  0
 17 21  1  0  0  0  0
 17 38  1  0  0  0  0
 18 22  1  0  0  0  0
 18 39  1  0  0  0  0
 19 23  2  0  0  0  0
 19 40  1  0  0  0  0
 20 41  1  0  0  0  0
 20 42  1  0  0  0  0
 20 43  1  0  0  0  0
 21 44  1  0  0  0  0
 21 45  1  0  0  0  0
 21 46  1  0  0  0  0
 22 24  2  0  0  0  0
 22 47  1  0  0  0  0
 23 24  1  0  0  0  0
 23 48  1  0  0  0  0
 25 49  1  0  0  0  0
 25 50  1  0  0  0  0
 25 51  1  0  0  0  0
M  END
> <PUBCHEM_COMPOUND_CID>
75368469

> <PUBCHEM_CONFORMER_RMSD>
0.8

> <PUBCHEM_CONFORMER_DIVERSEORDER>
1
46
57
52
7
17
48
37
30
59
54
43
39
36
50
18
20
38
33
11
44
12
55
13
41
58
6
53
51
21
45
31
62
34
49
23
14
26
8
47
61
25
15
24
27
5
56
3
35
19
32
10
2
28
40
29
60
9
42
4
22
16

> <PUBCHEM_MMFF94_PARTIAL_CHARGES>
28
1 -0.57
10 0.3
11 0.3
12 0.3
13 0.69
14 0.44
15 0.69
16 -0.14
17 0.3
18 -0.15
19 -0.15
2 -0.57
22 -0.15
23 -0.15
24 0.08
25 0.28
3 -0.36
37 0.37
39 0.15
4 -0.66
40 0.15
47 0.15
48 0.15
5 -0.66
6 -0.66
7 -0.73
8 0.3
9 0.3

> <PUBCHEM_EFFECTIVE_ROTOR_COUNT>
7.2

> <PUBCHEM_PHARMACOPHORE_FEATURES>
8
1 1 acceptor
1 2 acceptor
1 3 acceptor
1 7 donor
3 17 20 21 hydrophobe
5 4 5 8 9 13 rings
6 16 18 19 22 23 24 rings
6 4 6 8 10 11 12 rings

> <PUBCHEM_HEAVY_ATOM_COUNT>
25

> <PUBCHEM_ATOM_DEF_STEREO_COUNT>
1

> <PUBCHEM_ATOM_UDEF_STEREO_COUNT>
0

> <PUBCHEM_BOND_DEF_STEREO_COUNT>
0

> <PUBCHEM_BOND_UDEF_STEREO_COUNT>
0

> <PUBCHEM_ISOTOPIC_ATOM_COUNT>
0

> <PUBCHEM_COMPONENT_COUNT>
1

> <PUBCHEM_CACTVS_TAUTO_COUNT>
2

> <PUBCHEM_CONFORMER_ID>
047E081500000001

> <PUBCHEM_MMFF94_ENERGY>
63.4203

> <PUBCHEM_FEATURE_SELFOVERLAP>
40.694

> <PUBCHEM_SHAPE_FINGERPRINT>
10447042 23 18260838094367621180
10498660 4 15285909338907495877
105312 117 13767934536869691769
10571361 74 18340480076296367310
10670039 82 14707197791337987687
10693767 8 18334851753313447107
10753850 27 18341894112852395043
10794284 68 15406930513481595092
11497681 19 18340491050760072654
11809386 21 18343304760764778571
1200032 147 13696415601209950581
12390115 104 10375575010940432072
12616971 3 18189355518519204873
12633257 1 13686300223099020077
12892183 10 13973420023428621977
13782708 43 18057890139608846486
13828863 39 10231754492075258935
13885169 86 10663804296212830818
14211702 104 18271814475650818414
14251751 18 18272649039039755946
14848178 5 18201441354536735767
14951699 99 10447664516801829155
15052358 14 15430035444114965222
15163728 17 11602540905342096424
15183329 4 16153422831584396978
15188451 53 18131628967527066034
15238133 3 11170192111863228492
15475509 8 8502376680894373674
17349148 13 18340784675354608144
17857418 61 18336550417685224146
18222031 100 17968100773062196802
18785283 64 16199854172828436344
19958102 18 17167860855147117130
200 152 18260558804843981416
20028762 73 18413109433897796126
20567600 247 18409446998708112090
20621476 66 8070022289939377874
20621476 91 16343696642833043279
20691028 202 8934991568829621175
20775438 99 17760351589583457787
21315759 148 16128105459705568590
21637258 2 18130785685601527853
22393880 68 16877944992125760899
23402539 116 18188217498378092144
23559900 14 17603879909730703256
270888 7 7997699701088742071
2838139 119 13046219532783133191
3009799 131 17385723582706856424
312425 54 16772967908046186243
38570 142 8430321272387838656
392239 28 15482659187179939838
4015057 19 17822589277669780248
4280585 95 18335132085844226481
439807 62 18337391647513661423
46194498 28 16155420773040050685
5104073 3 17346322626337858393
5718773 13 18341325673836298087
59755656 520 15502952830840527433
60123966 16 16009042717521188950
6328613 192 8646475324408356874
636775 72 8501208926611145110
7495541 125 17917707977444252408
76465 3 18410859837074727144
7808743 9 8286196141515433365
7970288 3 18341610438684260463
96874 4 18411693279557757598

> <PUBCHEM_SHAPE_MULTIPOLES>
476.96
16.82
3.02
1.54
6.43
0.69
-0.05
17.74
2.51
-0.4
0.38
-0.32
-0.19
-2.39

> <PUBCHEM_SHAPE_SELFOVERLAP>
994.62

> <PUBCHEM_SHAPE_VOLUME>
271.8

> <PUBCHEM_COORDINATE_TYPE>
2
5
10

$$$$
