56775611
  -OEChem-12032416143D

 35 37  0     0  0  0  0  0  0999 V2000
   -1.7594   -3.1295    0.9386 O   0  0  0  0  0  0  0  0  0  0  0  0
    3.2512   -0.6029   -0.1859 O   0  0  0  0  0  0  0  0  0  0  0  0
    4.0682    1.7653    1.4776 O   0  0  0  0  0  0  0  0  0  0  0  0
   -1.5084   -0.1285    0.5740 N   0  0  0  0  0  0  0  0  0  0  0  0
    2.1851   -1.4254   -0.5295 N   0  0  0  0  0  0  0  0  0  0  0  0
   -3.1620    1.6247    0.2108 C   0  0  0  0  0  0  0  0  0  0  0  0
   -1.0430   -1.3750   -0.0434 C   0  0  0  0  0  0  0  0  0  0  0  0
   -3.6445    2.8138   -0.5669 C   0  0  0  0  0  0  0  0  0  0  0  0
   -2.7014    3.0031    0.5849 C   0  0  0  0  0  0  0  0  0  0  0  0
   -2.1951    0.6796   -0.4255 C   0  0  0  0  0  0  0  0  0  0  0  0
   -0.5674   -2.3194    1.0547 C   0  0  0  0  0  0  0  0  0  0  0  0
   -2.2244   -2.3298   -0.1725 C   0  0  0  0  0  0  0  0  0  0  0  0
   -0.1640   -1.1436   -1.2342 C   0  0  0  0  0  0  0  0  0  0  0  0
    1.1810   -0.5904   -0.8111 C   0  0  0  0  0  0  0  0  0  0  0  0
    1.5508    0.7577   -0.6641 C   0  0  0  0  0  0  0  0  0  0  0  0
    2.8611    0.6947   -0.2697 C   0  0  0  0  0  0  0  0  0  0  0  0
    3.8723    1.7056    0.0621 C   0  0  0  0  0  0  0  0  0  0  0  0
   -3.8832    1.1297    0.8504 H   0  0  0  0  0  0  0  0  0  0  0  0
   -4.6741    3.1216   -0.4307 H   0  0  0  0  0  0  0  0  0  0  0  0
   -3.2584    2.9742   -1.5660 H   0  0  0  0  0  0  0  0  0  0  0  0
   -1.6825    3.2929    0.3595 H   0  0  0  0  0  0  0  0  0  0  0  0
   -3.0975    3.4359    1.4954 H   0  0  0  0  0  0  0  0  0  0  0  0
   -1.4716    1.2433   -1.0257 H   0  0  0  0  0  0  0  0  0  0  0  0
   -2.7803    0.0681   -1.1233 H   0  0  0  0  0  0  0  0  0  0  0  0
   -0.7846    0.4260    1.0293 H   0  0  0  0  0  0  0  0  0  0  0  0
   -0.4595   -1.9075    2.0638 H   0  0  0  0  0  0  0  0  0  0  0  0
    0.3151   -2.9262    0.8293 H   0  0  0  0  0  0  0  0  0  0  0  0
   -2.2514   -2.9263   -1.0909 H   0  0  0  0  0  0  0  0  0  0  0  0
   -3.2305   -1.9429    0.0205 H   0  0  0  0  0  0  0  0  0  0  0  0
   -0.6066   -0.5070   -2.0075 H   0  0  0  0  0  0  0  0  0  0  0  0
    0.0226   -2.0996   -1.7448 H   0  0  0  0  0  0  0  0  0  0  0  0
    0.9589    1.6468   -0.8221 H   0  0  0  0  0  0  0  0  0  0  0  0
    4.8308    1.4633   -0.4078 H   0  0  0  0  0  0  0  0  0  0  0  0
    3.5599    2.6973   -0.2806 H   0  0  0  0  0  0  0  0  0  0  0  0
    4.7438    2.4454    1.6411 H   0  0  0  0  0  0  0  0  0  0  0  0
  1 11  1  0  0  0  0
  1 12  1  0  0  0  0
  2  5  1  0  0  0  0
  2 16  1  0  0  0  0
  3 17  1  0  0  0  0
  3 35  1  0  0  0  0
  4  7  1  0  0  0  0
  4 10  1  0  0  0  0
  4 25  1  0  0  0  0
  5 14  2  0  0  0  0
  6  8  1  0  0  0  0
  6  9  1  0  0  0  0
  6 10  1  0  0  0  0
  6 18  1  0  0  0  0
  7 11  1  0  0  0  0
  7 12  1  0  0  0  0
  7 13  1  0  0  0  0
  8  9  1  0  0  0  0
  8 19  1  0  0  0  0
  8 20  1  0  0  0  0
  9 21  1  0  0  0  0
  9 22  1  0  0  0  0
 10 23  1  0  0  0  0
 10 24  1  0  0  0  0
 11 26  1  0  0  0  0
 11 27  1  0  0  0  0
 12 28  1  0  0  0  0
 12 29  1  0  0  0  0
 13 14  1  0  0  0  0
 13 30  1  0  0  0  0
 13 31  1  0  0  0  0
 14 15  1  0  0  0  0
 15 16  2  0  0  0  0
 15 32  1  0  0  0  0
 16 17  1  0  0  0  0
 17 33  1  0  0  0  0
 17 34  1  0  0  0  0
M  END
> <PUBCHEM_COMPOUND_CID>
56775611

> <PUBCHEM_CONFORMER_RMSD>
0.8

> <PUBCHEM_CONFORMER_DIVERSEORDER>
2
82
41
34
35
61
77
70
63
64
86
23
85
45
8
68
58
24
17
72
83
57
48
46
59
54
42
80
30
39
32
76
62
20
50
9
55
73
18
66
19
65
5
47
81
25
10
40
7
75
38
79
16
78
67
60
36
22
44
13
53
74
71
84
4
43
3
15
14
12
26
37
21
27
56
28
52
51
11
69
29
6
31
33
1
49

> <PUBCHEM_MMFF94_PARTIAL_CHARGES>
25
1 -0.52
10 0.37
11 0.26
12 0.26
13 0.18
14 0.11
15 -0.15
16 -0.04
17 0.46
18 0.1
19 0.1
2 -0.02
20 0.1
21 0.1
22 0.1
25 0.36
3 -0.68
32 0.15
35 0.4
4 -0.84
5 -0.41
6 -0.19
7 0.21
8 -0.2
9 -0.2

> <PUBCHEM_EFFECTIVE_ROTOR_COUNT>
7.4

> <PUBCHEM_PHARMACOPHORE_FEATURES>
8
1 1 acceptor
1 3 acceptor
1 3 donor
1 4 cation
1 4 donor
1 5 acceptor
4 1 7 11 12 rings
5 2 5 14 15 16 rings

> <PUBCHEM_HEAVY_ATOM_COUNT>
17

> <PUBCHEM_ATOM_DEF_STEREO_COUNT>
0

> <PUBCHEM_ATOM_UDEF_STEREO_COUNT>
0

> <PUBCHEM_BOND_DEF_STEREO_COUNT>
0

> <PUBCHEM_BOND_UDEF_STEREO_COUNT>
0

> <PUBCHEM_ISOTOPIC_ATOM_COUNT>
0

> <PUBCHEM_COMPONENT_COUNT>
1

> <PUBCHEM_CACTVS_TAUTO_COUNT>
1

> <PUBCHEM_CONFORMER_ID>
036253BB00000002

> <PUBCHEM_MMFF94_ENERGY>
34.0068

> <PUBCHEM_FEATURE_SELFOVERLAP>
40.596

> <PUBCHEM_SHAPE_FINGERPRINT>
10608611 8 18342461460593747676
10670039 82 17977395159506460868
11221954 11 18272657826537874244
122479 349 18413387622701603692
12500047 106 18409453557470754724
12532896 13 18336267847312537247
12788726 201 18116997891056148059
13294875 104 18120653531053531810
13955234 65 17687189691187575465
14178342 30 18188205507093041818
14466204 15 17616811038008584888
14787075 74 18272086098409907909
15295992 7 18195543509803983553
1741750 31 18412544301477833368
18186145 218 18055647118006174621
19765921 60 18199180694722613433
20510252 161 18411425037706757483
20671657 1 17905045846677205239
20723712 36 17686323283660209522
21401589 2 18343582940969233017
21524375 3 18267587897144543365
21650355 55 17903358452352445131
21731228 192 18263653878852704089
22182937 141 18343311374397541377
23402539 116 18267297810996320367
23419403 2 14258778599667903687
23503958 25 18055920037767143608
23557571 272 18268444592453368268
23558518 356 18334299781417701615
2748010 2 18200893849633857726
305870 269 18045506305251931055
3187 122 17905308973132095913
474 4 18122629349380693577
539174 4 17388503126278755584
6049 1 17986419830291438070
6333272 397 18336834070157677517
7364860 26 17471860204079208767
81228 2 18189069744617697815
84936 182 17981886345944394993
90316 7 17978518851081869651
9981440 41 18129361822159398354

> <PUBCHEM_SHAPE_MULTIPOLES>
322.28
6.7
3.73
1.06
3.44
0.39
-0.11
-6.61
-0.79
-3.21
-0.98
0.26
0.1
0.88

> <PUBCHEM_SHAPE_SELFOVERLAP>
669.409

> <PUBCHEM_SHAPE_VOLUME>
187.6

> <PUBCHEM_COORDINATE_TYPE>
2
5
10

$$$$
