26743814
  -OEChem-12032416283D

 43 46  0     1  0  0  0  0  0999 V2000
    4.0072   -1.6495    2.0008 F   0  0  0  0  0  0  0  0  0  0  0  0
   -4.9727    1.8639    2.0710 O   0  0  0  0  0  0  0  0  0  0  0  0
   -0.6385    1.9723   -1.6292 O   0  0  0  0  0  0  0  0  0  0  0  0
   -2.9660   -0.3109    0.0674 N   0  0  1  0  0  0  0  0  0  0  0  0
   -0.0894    0.4820   -0.0499 N   0  0  0  0  0  0  0  0  0  0  0  0
    0.7600    1.8954   -1.6357 N   0  0  0  0  0  0  0  0  0  0  0  0
   -3.0677   -2.6946   -0.4294 C   0  0  0  0  0  0  0  0  0  0  0  0
   -1.7100   -3.2841   -0.1827 C   0  0  0  0  0  0  0  0  0  0  0  0
   -2.5542   -3.7925   -1.3143 C   0  0  0  0  0  0  0  0  0  0  0  0
   -3.1741   -1.3075   -0.9750 C   0  0  0  0  0  0  0  0  0  0  0  0
   -2.5548    1.0060   -0.4599 C   0  0  1  0  0  0  0  0  0  0  0  0
   -4.1738   -0.0815    0.8580 C   0  0  0  0  0  0  0  0  0  0  0  0
   -3.0859    2.0243    0.5661 C   0  0  0  0  0  0  0  0  0  0  0  0
   -3.8196    1.1887    1.6077 C   0  0  1  0  0  0  0  0  0  0  0  0
   -1.0584    1.1096   -0.6671 C   0  0  0  0  0  0  0  0  0  0  0  0
    1.0071    0.9966   -0.6780 C   0  0  0  0  0  0  0  0  0  0  0  0
    2.3371    0.5924   -0.3239 C   0  0  0  0  0  0  0  0  0  0  0  0
    2.5343   -0.3498    0.6856 C   0  0  0  0  0  0  0  0  0  0  0  0
    3.4332    1.1414   -0.9893 C   0  0  0  0  0  0  0  0  0  0  0  0
    3.8276   -0.7433    1.0294 C   0  0  0  0  0  0  0  0  0  0  0  0
    4.7265    0.7481   -0.6452 C   0  0  0  0  0  0  0  0  0  0  0  0
    4.9238   -0.1943    0.3641 C   0  0  0  0  0  0  0  0  0  0  0  0
    6.3079   -0.6126    0.7295 C   0  0  0  0  0  0  0  0  0  0  0  0
   -3.8681   -2.9480    0.2550 H   0  0  0  0  0  0  0  0  0  0  0  0
   -1.5886   -3.9230    0.6835 H   0  0  0  0  0  0  0  0  0  0  0  0
   -0.8329   -2.6995   -0.4325 H   0  0  0  0  0  0  0  0  0  0  0  0
   -2.2436   -3.5502   -2.3231 H   0  0  0  0  0  0  0  0  0  0  0  0
   -2.9990   -4.7746   -1.2087 H   0  0  0  0  0  0  0  0  0  0  0  0
   -4.1396   -1.1761   -1.4798 H   0  0  0  0  0  0  0  0  0  0  0  0
   -2.4113   -1.1845   -1.7557 H   0  0  0  0  0  0  0  0  0  0  0  0
   -3.0553    1.2046   -1.4184 H   0  0  0  0  0  0  0  0  0  0  0  0
   -4.3832   -0.9009    1.5535 H   0  0  0  0  0  0  0  0  0  0  0  0
   -5.0670    0.0729    0.2384 H   0  0  0  0  0  0  0  0  0  0  0  0
   -2.2942    2.6144    1.0420 H   0  0  0  0  0  0  0  0  0  0  0  0
   -3.7694    2.7315    0.0797 H   0  0  0  0  0  0  0  0  0  0  0  0
   -3.1648    0.9682    2.4598 H   0  0  0  0  0  0  0  0  0  0  0  0
   -4.6803    2.7005    2.4713 H   0  0  0  0  0  0  0  0  0  0  0  0
    1.7009   -0.7962    1.2223 H   0  0  0  0  0  0  0  0  0  0  0  0
    3.3187    1.8779   -1.7807 H   0  0  0  0  0  0  0  0  0  0  0  0
    5.5710    1.1852   -1.1717 H   0  0  0  0  0  0  0  0  0  0  0  0
    6.5608   -0.2456    1.7294 H   0  0  0  0  0  0  0  0  0  0  0  0
    6.3927   -1.7044    0.7180 H   0  0  0  0  0  0  0  0  0  0  0  0
    7.0512   -0.2204    0.0273 H   0  0  0  0  0  0  0  0  0  0  0  0
  1 20  1  0  0  0  0
  2 14  1  0  0  0  0
  2 37  1  0  0  0  0
  3  6  1  0  0  0  0
  3 15  1  0  0  0  0
  4 10  1  0  0  0  0
  4 11  1  0  0  0  0
  4 12  1  0  0  0  0
  5 15  2  0  0  0  0
  5 16  1  0  0  0  0
  6 16  2  0  0  0  0
  7  8  1  0  0  0  0
  7  9  1  0  0  0  0
  7 10  1  0  0  0  0
  7 24  1  0  0  0  0
  8  9  1  0  0  0  0
  8 25  1  0  0  0  0
  8 26  1  0  0  0  0
  9 27  1  0  0  0  0
  9 28  1  0  0  0  0
 10 29  1  0  0  0  0
 10 30  1  0  0  0  0
 11 13  1  0  0  0  0
 11 15  1  0  0  0  0
 11 31  1  0  0  0  0
 12 14  1  0  0  0  0
 12 32  1  0  0  0  0
 12 33  1  0  0  0  0
 13 14  1  0  0  0  0
 13 34  1  0  0  0  0
 13 35  1  0  0  0  0
 14 36  1  0  0  0  0
 16 17  1  0  0  0  0
 17 18  2  0  0  0  0
 17 19  1  0  0  0  0
 18 20  1  0  0  0  0
 18 38  1  0  0  0  0
 19 21  2  0  0  0  0
 19 39  1  0  0  0  0
 20 22  2  0  0  0  0
 21 22  1  0  0  0  0
 21 40  1  0  0  0  0
 22 23  1  0  0  0  0
 23 41  1  0  0  0  0
 23 42  1  0  0  0  0
 23 43  1  0  0  0  0
M  END
> <PUBCHEM_COMPOUND_CID>
26743814

> <PUBCHEM_CONFORMER_RMSD>
0.8

> <PUBCHEM_CONFORMER_DIVERSEORDER>
1
26
6
9
15
40
8
24
4
18
27
21
14
44
33
28
12
30
43
34
22
31
35
32
23
7
19
10
29
11
45
36
41
16
38
42
2
3
17
13
20
5
39
25
37

> <PUBCHEM_MMFF94_PARTIAL_CHARGES>
31
1 -0.19
10 0.37
11 0.45
12 0.27
14 0.28
15 0.3
16 0.46
17 0.05
18 -0.15
19 -0.15
2 -0.68
20 0.19
21 -0.15
22 -0.14
23 0.14
24 0.1
25 0.1
26 0.1
27 0.1
28 0.1
3 -0.02
37 0.4
38 0.15
39 0.15
4 -0.81
40 0.15
5 -0.57
6 -0.41
7 -0.19
8 -0.2
9 -0.2

> <PUBCHEM_EFFECTIVE_ROTOR_COUNT>
5.6

> <PUBCHEM_PHARMACOPHORE_FEATURES>
7
1 2 acceptor
1 2 donor
1 4 cation
3 5 6 16 cation
5 3 5 6 15 16 rings
5 4 11 12 13 14 rings
6 17 18 19 20 21 22 rings

> <PUBCHEM_HEAVY_ATOM_COUNT>
23

> <PUBCHEM_ATOM_DEF_STEREO_COUNT>
2

> <PUBCHEM_ATOM_UDEF_STEREO_COUNT>
0

> <PUBCHEM_BOND_DEF_STEREO_COUNT>
0

> <PUBCHEM_BOND_UDEF_STEREO_COUNT>
0

> <PUBCHEM_ISOTOPIC_ATOM_COUNT>
0

> <PUBCHEM_COMPONENT_COUNT>
1

> <PUBCHEM_CACTVS_TAUTO_COUNT>
1

> <PUBCHEM_CONFORMER_ID>
0198140600000001

> <PUBCHEM_MMFF94_ENERGY>
47.2857

> <PUBCHEM_FEATURE_SELFOVERLAP>
35.522

> <PUBCHEM_SHAPE_FINGERPRINT>
10366900 7 17632569465974521989
10616163 171 18410854403872831470
11036077 4 18342737403663344907
11370993 144 17846499197360392302
11552529 35 18129653222568276302
12523318 42 18059570342686665178
12549972 3 16269156313079979789
12553582 1 17821722853916527888
12616971 3 18113340817019929676
12633257 1 18272653437149966985
12788726 201 17982190099443847615
13167823 11 18333450954372418204
13583140 156 16415476064835101838
13631057 29 18051693549102039934
14100547 121 18341887485417703223
14178342 30 18271816739050552119
14840074 17 18186809058131509935
14844126 61 18199748205921182307
15250474 111 18337949090912606446
15348495 7 17989481940442280624
15537594 2 18040722450445189042
15842332 3 18118984713084338709
16120349 306 18337099103451414842
17780758 139 18342736329773620128
1813 80 17604164639590790460
19141452 34 18410293601128114908
19319366 153 16533996031313889111
20261772 1 18333450932802733794
20281475 54 18335135440503919572
20554085 129 17702383954019856417
20681677 274 17985261017792022377
20775438 99 15965368220742505607
20775530 9 17905316682788620879
212916 134 17988371351946408409
23402539 116 17167857535506506428
23559900 14 18126831914523330281
23728640 28 18341902926299671595
312425 54 18201148880982399090
351380 3 17967816037693683586
5104073 3 18271802467290861568
5364581 5 17701804704301745096
5385378 56 17911254823626724393
5486654 36 18337675320705940995
58807428 26 18269852921552916483
5924683 9 18200870785538314559
602551 16 18272652372346003230
7064713 232 18343300344757799931
90127 26 16559029407075309416
9981440 41 16271938060518882477

> <PUBCHEM_SHAPE_MULTIPOLES>
439.37
11.8
3.22
1.57
11.87
3.39
-0.3
0.88
-4.9
-4.92
0.7
-0.29
-0.41
-3.05

> <PUBCHEM_SHAPE_SELFOVERLAP>
945.283

> <PUBCHEM_SHAPE_VOLUME>
246.3

> <PUBCHEM_COORDINATE_TYPE>
2
5
10

$$$$
