71693713
  -OEChem-12032416233D

 58 60  0     1  0  0  0  0  0999 V2000
   -1.6799    2.3692   -1.2055 O   0  0  0  0  0  0  0  0  0  0  0  0
   -4.9710   -3.3562   -0.2354 O   0  0  0  0  0  0  0  0  0  0  0  0
   -3.3053    0.7791    2.9176 O   0  0  0  0  0  0  0  0  0  0  0  0
   -4.5056    0.5372   -1.8112 O   0  0  0  0  0  0  0  0  0  0  0  0
    5.4293    1.5406    0.5352 O   0  0  0  0  0  0  0  0  0  0  0  0
   -3.0194    0.3354   -0.0230 N   0  0  0  0  0  0  0  0  0  0  0  0
    4.0739   -0.0449   -0.5521 N   0  0  0  0  0  0  0  0  0  0  0  0
   -3.3833   -1.0187    0.3122 C   0  0  0  0  0  0  0  0  0  0  0  0
   -2.0997    1.0448    0.8730 C   0  0  1  0  0  0  0  0  0  0  0  0
   -1.1936    2.0390    0.0999 C   0  0  1  0  0  0  0  0  0  0  0  0
   -4.8612   -1.1150    0.6938 C   0  0  0  0  0  0  0  0  0  0  0  0
   -3.0705   -1.9702   -0.8432 C   0  0  0  0  0  0  0  0  0  0  0  0
   -3.6210    0.9958   -1.0914 C   0  0  0  0  0  0  0  0  0  0  0  0
   -5.2647   -2.5669    0.9171 C   0  0  0  0  0  0  0  0  0  0  0  0
   -3.5755   -3.3741   -0.5352 C   0  0  0  0  0  0  0  0  0  0  0  0
   -2.8735    1.7550    1.9917 C   0  0  0  0  0  0  0  0  0  0  0  0
   -3.0894    2.3939   -1.2985 C   0  0  0  0  0  0  0  0  0  0  0  0
    0.2077    1.4841   -0.0733 C   0  0  0  0  0  0  0  0  0  0  0  0
    0.4053    0.2927   -0.7714 C   0  0  0  0  0  0  0  0  0  0  0  0
    1.2989    2.1658    0.4657 C   0  0  0  0  0  0  0  0  0  0  0  0
    1.6939   -0.2168   -0.9309 C   0  0  0  0  0  0  0  0  0  0  0  0
    2.5875    1.6564    0.3063 C   0  0  0  0  0  0  0  0  0  0  0  0
    2.7850    0.4650   -0.3921 C   0  0  0  0  0  0  0  0  0  0  0  0
    6.4675   -0.3850   -0.4819 C   0  0  0  0  0  0  0  0  0  0  0  0
    6.3811   -1.8230    0.0528 C   0  0  0  0  0  0  0  0  0  0  0  0
    5.2849    0.4932   -0.0867 C   0  0  0  0  0  0  0  0  0  0  0  0
    6.3272   -1.8123    1.5818 C   0  0  0  0  0  0  0  0  0  0  0  0
    7.5715   -2.6639   -0.4152 C   0  0  0  0  0  0  0  0  0  0  0  0
   -2.7900   -1.3458    1.1758 H   0  0  0  0  0  0  0  0  0  0  0  0
   -1.4633    0.2933    1.3602 H   0  0  0  0  0  0  0  0  0  0  0  0
   -1.1226    2.9844    0.6520 H   0  0  0  0  0  0  0  0  0  0  0  0
   -5.5052   -0.7160   -0.0959 H   0  0  0  0  0  0  0  0  0  0  0  0
   -5.0758   -0.5295    1.5933 H   0  0  0  0  0  0  0  0  0  0  0  0
   -1.9926   -2.0008   -1.0347 H   0  0  0  0  0  0  0  0  0  0  0  0
   -3.5469   -1.6428   -1.7726 H   0  0  0  0  0  0  0  0  0  0  0  0
   -4.7560   -2.9923    1.7902 H   0  0  0  0  0  0  0  0  0  0  0  0
   -6.3421   -2.6311    1.0999 H   0  0  0  0  0  0  0  0  0  0  0  0
   -3.0282   -3.8193    0.3040 H   0  0  0  0  0  0  0  0  0  0  0  0
   -3.4288   -4.0226   -1.4049 H   0  0  0  0  0  0  0  0  0  0  0  0
   -3.7467    2.2970    1.6171 H   0  0  0  0  0  0  0  0  0  0  0  0
   -2.2273    2.4530    2.5337 H   0  0  0  0  0  0  0  0  0  0  0  0
   -3.3543    2.7255   -2.3071 H   0  0  0  0  0  0  0  0  0  0  0  0
   -3.5255    3.0932   -0.5790 H   0  0  0  0  0  0  0  0  0  0  0  0
   -0.4294   -0.2431   -1.2112 H   0  0  0  0  0  0  0  0  0  0  0  0
    1.1600    3.0944    1.0128 H   0  0  0  0  0  0  0  0  0  0  0  0
   -3.7922    1.2431    3.6198 H   0  0  0  0  0  0  0  0  0  0  0  0
    1.8332   -1.1445   -1.4802 H   0  0  0  0  0  0  0  0  0  0  0  0
    3.3800    2.2396    0.7536 H   0  0  0  0  0  0  0  0  0  0  0  0
    4.1267   -0.9040   -1.0938 H   0  0  0  0  0  0  0  0  0  0  0  0
    5.4712   -2.3116   -0.3136 H   0  0  0  0  0  0  0  0  0  0  0  0
    7.3831    0.1001   -0.1214 H   0  0  0  0  0  0  0  0  0  0  0  0
    6.5216   -0.3950   -1.5776 H   0  0  0  0  0  0  0  0  0  0  0  0
    7.2039   -1.3125    2.0082 H   0  0  0  0  0  0  0  0  0  0  0  0
    6.3003   -2.8346    1.9745 H   0  0  0  0  0  0  0  0  0  0  0  0
    5.4318   -1.3007    1.9489 H   0  0  0  0  0  0  0  0  0  0  0  0
    8.5187   -2.2453   -0.0585 H   0  0  0  0  0  0  0  0  0  0  0  0
    7.4932   -3.6915   -0.0448 H   0  0  0  0  0  0  0  0  0  0  0  0
    7.6090   -2.7038   -1.5089 H   0  0  0  0  0  0  0  0  0  0  0  0
  1 10  1  0  0  0  0
  1 17  1  0  0  0  0
  2 14  1  0  0  0  0
  2 15  1  0  0  0  0
  3 16  1  0  0  0  0
  3 46  1  0  0  0  0
  4 13  2  0  0  0  0
  5 26  2  0  0  0  0
  6  8  1  0  0  0  0
  6  9  1  0  0  0  0
  6 13  1  0  0  0  0
  7 23  1  0  0  0  0
  7 26  1  0  0  0  0
  7 49  1  0  0  0  0
  8 11  1  0  0  0  0
  8 12  1  0  0  0  0
  8 29  1  0  0  0  0
  9 10  1  0  0  0  0
  9 16  1  0  0  0  0
  9 30  1  0  0  0  0
 10 18  1  0  0  0  0
 10 31  1  0  0  0  0
 11 14  1  0  0  0  0
 11 32  1  0  0  0  0
 11 33  1  0  0  0  0
 12 15  1  0  0  0  0
 12 34  1  0  0  0  0
 12 35  1  0  0  0  0
 13 17  1  0  0  0  0
 14 36  1  0  0  0  0
 14 37  1  0  0  0  0
 15 38  1  0  0  0  0
 15 39  1  0  0  0  0
 16 40  1  0  0  0  0
 16 41  1  0  0  0  0
 17 42  1  0  0  0  0
 17 43  1  0  0  0  0
 18 19  2  0  0  0  0
 18 20  1  0  0  0  0
 19 21  1  0  0  0  0
 19 44  1  0  0  0  0
 20 22  2  0  0  0  0
 20 45  1  0  0  0  0
 21 23  2  0  0  0  0
 21 47  1  0  0  0  0
 22 23  1  0  0  0  0
 22 48  1  0  0  0  0
 24 25  1  0  0  0  0
 24 26  1  0  0  0  0
 24 51  1  0  0  0  0
 24 52  1  0  0  0  0
 25 27  1  0  0  0  0
 25 28  1  0  0  0  0
 25 50  1  0  0  0  0
 27 53  1  0  0  0  0
 27 54  1  0  0  0  0
 27 55  1  0  0  0  0
 28 56  1  0  0  0  0
 28 57  1  0  0  0  0
 28 58  1  0  0  0  0
M  END
> <PUBCHEM_COMPOUND_CID>
71693713

> <PUBCHEM_CONFORMER_RMSD>
1

> <PUBCHEM_CONFORMER_DIVERSEORDER>
1
15
26
19
28
14
11
7
3
4
23
25
20
29
30
13
10
27
9
12
31
22
2
6
24
32
33
16
17
8
18
5
21

> <PUBCHEM_MMFF94_PARTIAL_CHARGES>
29
1 -0.56
10 0.42
13 0.57
14 0.28
15 0.28
16 0.28
17 0.34
18 -0.14
19 -0.15
2 -0.56
20 -0.15
21 -0.15
22 -0.15
23 0.12
24 0.06
26 0.57
3 -0.68
4 -0.57
44 0.15
45 0.15
46 0.4
47 0.15
48 0.15
49 0.37
5 -0.57
6 -0.66
7 -0.55
8 0.3
9 0.3

> <PUBCHEM_EFFECTIVE_ROTOR_COUNT>
9.2

> <PUBCHEM_PHARMACOPHORE_FEATURES>
11
1 1 acceptor
1 2 acceptor
1 3 acceptor
1 3 donor
1 4 acceptor
1 5 acceptor
1 7 donor
3 25 27 28 hydrophobe
6 1 6 9 10 13 17 rings
6 18 19 20 21 22 23 rings
6 2 8 11 12 14 15 rings

> <PUBCHEM_HEAVY_ATOM_COUNT>
28

> <PUBCHEM_ATOM_DEF_STEREO_COUNT>
2

> <PUBCHEM_ATOM_UDEF_STEREO_COUNT>
0

> <PUBCHEM_BOND_DEF_STEREO_COUNT>
0

> <PUBCHEM_BOND_UDEF_STEREO_COUNT>
0

> <PUBCHEM_ISOTOPIC_ATOM_COUNT>
0

> <PUBCHEM_COMPONENT_COUNT>
1

> <PUBCHEM_CACTVS_TAUTO_COUNT>
6

> <PUBCHEM_CONFORMER_ID>
0445F59100000001

> <PUBCHEM_MMFF94_ENERGY>
77.9948

> <PUBCHEM_FEATURE_SELFOVERLAP>
55.823

> <PUBCHEM_SHAPE_FINGERPRINT>
10622 236 17482819461644367351
11036077 4 18130235869589526449
11135609 12 18337676411749024773
11315181 36 17561073675308307788
117089 54 17755031027005265955
11796584 16 18263919939640071876
11809386 21 18186514393262767099
12760667 363 18272088361836502695
13782708 43 18335702715985136926
13994607 96 9151177550052196915
14211702 104 18410014338782819622
14251751 18 18336265729624537820
14347332 77 18335417993327393758
14950920 106 16988005027987448019
15183329 4 14634869730683081368
15361156 5 17531257106454434524
17627616 140 17969778588466851570
17780758 139 18060144245165127697
17857418 61 18188484680357607010
17913733 40 15482677849329968710
18927931 339 18041570135012834196
21033648 29 14764079912650936953
21033650 10 16878213195917823109
22393880 68 18113888364751141928
23522609 53 18050043023700214468
23559900 14 18338222860354283429
25122255 55 18411985724423683270
2748736 6 9583523084099429514
3711267 37 12390641193376611578
392239 28 15913319209009580882
397830 11 18270666650673518296
44062 13 18334006181711053349
484985 159 18341898485371565651
5104073 3 17989207045334583016
531348 171 17896031044976974572
5718773 13 18338514256842591311
57724786 102 10519442783219931264
636775 8 18269849640784082550
7970288 3 18119528992651848115
8863177 126 18412823616798027142

> <PUBCHEM_SHAPE_MULTIPOLES>
536.92
17.12
3.57
1.54
30.24
2.33
-0.76
14.63
-1.33
-2.95
0.13
-1.67
-0.46
0.05

> <PUBCHEM_SHAPE_SELFOVERLAP>
1117.1

> <PUBCHEM_SHAPE_VOLUME>
301.3

> <PUBCHEM_COORDINATE_TYPE>
2
5
10

$$$$
