11913358
  -OEChem-12032416163D

 51 54  0     1  0  0  0  0  0999 V2000
    3.6933    3.5687   -1.2166 F   0  0  0  0  0  0  0  0  0  0  0  0
   -2.1402   -2.3120   -1.8512 O   0  0  0  0  0  0  0  0  0  0  0  0
   -0.7050    0.4457   -2.1199 O   0  0  0  0  0  0  0  0  0  0  0  0
   -5.5458   -0.0428   -0.3910 O   0  0  0  0  0  0  0  0  0  0  0  0
    0.4889   -2.4363   -0.2231 N   0  0  0  0  0  0  0  0  0  0  0  0
   -3.4733    0.9254   -0.7904 N   0  0  0  0  0  0  0  0  0  0  0  0
   -4.9311    1.9172    0.6879 N   0  0  0  0  0  0  0  0  0  0  0  0
    2.3128   -1.0200    0.1942 N   0  0  0  0  0  0  0  0  0  0  0  0
    1.8016   -2.8489    1.6777 N   0  0  0  0  0  0  0  0  0  0  0  0
   -0.7553   -0.5399   -1.0745 C   0  0  1  0  0  0  0  0  0  0  0  0
   -2.1598   -1.1110   -1.0619 C   0  0  1  0  0  0  0  0  0  0  0  0
    0.1203   -1.7198   -1.4245 C   0  0  2  0  0  0  0  0  0  0  0  0
   -2.9948   -0.0494   -1.7406 C   0  0  2  0  0  0  0  0  0  0  0  0
   -0.7964   -2.5715   -2.2833 C   0  0  0  0  0  0  0  0  0  0  0  0
   -2.0062    0.5691   -2.7131 C   0  0  0  0  0  0  0  0  0  0  0  0
    1.5664   -2.0914    0.5734 C   0  0  0  0  0  0  0  0  0  0  0  0
   -4.7258    0.8509   -0.1839 C   0  0  0  0  0  0  0  0  0  0  0  0
    3.3553   -0.7121    0.9932 C   0  0  0  0  0  0  0  0  0  0  0  0
   -6.1474    2.0837    1.4479 C   0  0  0  0  0  0  0  0  0  0  0  0
    2.8599   -2.4848    2.4312 C   0  0  0  0  0  0  0  0  0  0  0  0
    3.6799   -1.4152    2.1354 C   0  0  0  0  0  0  0  0  0  0  0  0
    4.1334    0.4288    0.5731 C   0  0  0  0  0  0  0  0  0  0  0  0
   -6.0027    1.3850    2.7588 C   0  0  0  0  0  0  0  0  0  0  0  0
    3.5263    1.4693   -0.1335 C   0  0  0  0  0  0  0  0  0  0  0  0
    5.4961    0.4963    0.8717 C   0  0  0  0  0  0  0  0  0  0  0  0
    4.2780    2.5720   -0.5392 C   0  0  0  0  0  0  0  0  0  0  0  0
    6.2477    1.5990    0.4658 C   0  0  0  0  0  0  0  0  0  0  0  0
   -6.8149    0.4072    3.1761 C   0  0  0  0  0  0  0  0  0  0  0  0
    5.6387    2.6368   -0.2397 C   0  0  0  0  0  0  0  0  0  0  0  0
   -0.4950   -0.0337   -0.1394 H   0  0  0  0  0  0  0  0  0  0  0  0
   -2.5025   -1.3833   -0.0584 H   0  0  0  0  0  0  0  0  0  0  0  0
    1.0105   -1.4523   -2.0052 H   0  0  0  0  0  0  0  0  0  0  0  0
   -3.8538   -0.4655   -2.2780 H   0  0  0  0  0  0  0  0  0  0  0  0
   -0.5964   -3.6456   -2.2183 H   0  0  0  0  0  0  0  0  0  0  0  0
   -0.7326   -2.2745   -3.3359 H   0  0  0  0  0  0  0  0  0  0  0  0
   -1.9862    0.0138   -3.6572 H   0  0  0  0  0  0  0  0  0  0  0  0
   -2.2048    1.6217   -2.9366 H   0  0  0  0  0  0  0  0  0  0  0  0
   -0.0909   -3.2037    0.0971 H   0  0  0  0  0  0  0  0  0  0  0  0
   -2.8440    1.6679   -0.5003 H   0  0  0  0  0  0  0  0  0  0  0  0
   -4.1878    2.5983    0.8094 H   0  0  0  0  0  0  0  0  0  0  0  0
   -6.9951    1.7038    0.8678 H   0  0  0  0  0  0  0  0  0  0  0  0
   -6.2918    3.1562    1.6108 H   0  0  0  0  0  0  0  0  0  0  0  0
    3.0325   -3.0937    3.3122 H   0  0  0  0  0  0  0  0  0  0  0  0
    4.4986   -1.1642    2.7973 H   0  0  0  0  0  0  0  0  0  0  0  0
   -5.1969    1.7049    3.4148 H   0  0  0  0  0  0  0  0  0  0  0  0
    2.4661    1.4555   -0.3748 H   0  0  0  0  0  0  0  0  0  0  0  0
    6.0164   -0.3004    1.3965 H   0  0  0  0  0  0  0  0  0  0  0  0
    7.3086    1.6474    0.6936 H   0  0  0  0  0  0  0  0  0  0  0  0
   -6.6628   -0.0576    4.1441 H   0  0  0  0  0  0  0  0  0  0  0  0
   -7.6384    0.0542    2.5652 H   0  0  0  0  0  0  0  0  0  0  0  0
    6.2241    3.4947   -0.5571 H   0  0  0  0  0  0  0  0  0  0  0  0
  1 26  1  0  0  0  0
  2 11  1  0  0  0  0
  2 14  1  0  0  0  0
  3 10  1  0  0  0  0
  3 15  1  0  0  0  0
  4 17  2  0  0  0  0
  5 12  1  0  0  0  0
  5 16  1  0  0  0  0
  5 38  1  0  0  0  0
  6 13  1  0  0  0  0
  6 17  1  0  0  0  0
  6 39  1  0  0  0  0
  7 17  1  0  0  0  0
  7 19  1  0  0  0  0
  7 40  1  0  0  0  0
  8 16  1  0  0  0  0
  8 18  2  0  0  0  0
  9 16  2  0  0  0  0
  9 20  1  0  0  0  0
 10 11  1  0  0  0  0
 10 12  1  0  0  0  0
 10 30  1  0  0  0  0
 11 13  1  0  0  0  0
 11 31  1  0  0  0  0
 12 14  1  0  0  0  0
 12 32  1  0  0  0  0
 13 15  1  0  0  0  0
 13 33  1  0  0  0  0
 14 34  1  0  0  0  0
 14 35  1  0  0  0  0
 15 36  1  0  0  0  0
 15 37  1  0  0  0  0
 18 21  1  0  0  0  0
 18 22  1  0  0  0  0
 19 23  1  0  0  0  0
 19 41  1  0  0  0  0
 19 42  1  0  0  0  0
 20 21  2  0  0  0  0
 20 43  1  0  0  0  0
 21 44  1  0  0  0  0
 22 24  2  0  0  0  0
 22 25  1  0  0  0  0
 23 28  2  0  0  0  0
 23 45  1  0  0  0  0
 24 26  1  0  0  0  0
 24 46  1  0  0  0  0
 25 27  2  0  0  0  0
 25 47  1  0  0  0  0
 26 29  2  0  0  0  0
 27 29  1  0  0  0  0
 27 48  1  0  0  0  0
 28 49  1  0  0  0  0
 28 50  1  0  0  0  0
 29 51  1  0  0  0  0
M  END
> <PUBCHEM_COMPOUND_CID>
11913358

> <PUBCHEM_CONFORMER_RMSD>
1

> <PUBCHEM_CONFORMER_DIVERSEORDER>
1
16
146
52
182
175
177
151
35
66
96
69
82
155
84
185
41
135
70
61
197
133
90
104
190
147
195
128
119
46
198
157
144
80
174
97
122
65
33
110
85
74
129
178
126
102
160
54
37
140
86
101
164
163
121
142
130
91
47
56
139
123
181
191
113
173
93
111
165
105
186
34
62
124
131
89
14
40
167
179
120
132
88
81
17
59
143
161
153
50
26
77
170
150
57
87
106
112
39
114
76
109
176
43
72
13
134
51
127
108
171
187
94
156
125
184
83
78
188
189
53
194
58
71
7
92
48
154
49
38
100
99
98
172
136
11
42
60
141
148
193
158
95
12
20
6
152
196
159
44
29
15
55
115
103
8
145
63
73
68
166
67
137
107
23
25
149
79
30
192
19
116
18
31
168
32
162
138
21
27
64
117
2
183
45
180
169
75
28
118
4
10
3
24
36
22
9
5

> <PUBCHEM_MMFF94_PARTIAL_CHARGES>
40
1 -0.19
10 0.28
11 0.28
12 0.37
13 0.3
14 0.28
15 0.28
16 0.72
17 0.69
18 0.31
19 0.44
2 -0.56
20 0.16
21 -0.15
23 -0.29
24 -0.15
25 -0.15
26 0.19
27 -0.15
28 -0.3
29 -0.15
3 -0.56
38 0.4
39 0.37
4 -0.57
40 0.37
43 0.15
44 0.15
45 0.15
46 0.15
47 0.15
48 0.15
49 0.15
5 -0.87
50 0.15
51 0.15
6 -0.73
7 -0.73
8 -0.62
9 -0.62

> <PUBCHEM_EFFECTIVE_ROTOR_COUNT>
9.2

> <PUBCHEM_PHARMACOPHORE_FEATURES>
13
1 2 acceptor
1 28 hydrophobe
1 3 acceptor
1 4 acceptor
1 5 donor
1 6 donor
1 7 donor
1 8 acceptor
4 5 8 9 16 cation
5 2 10 11 12 14 rings
5 3 10 11 13 15 rings
6 22 24 25 26 27 29 rings
6 8 9 16 18 20 21 rings

> <PUBCHEM_HEAVY_ATOM_COUNT>
29

> <PUBCHEM_ATOM_DEF_STEREO_COUNT>
4

> <PUBCHEM_ATOM_UDEF_STEREO_COUNT>
0

> <PUBCHEM_BOND_DEF_STEREO_COUNT>
0

> <PUBCHEM_BOND_UDEF_STEREO_COUNT>
0

> <PUBCHEM_ISOTOPIC_ATOM_COUNT>
0

> <PUBCHEM_COMPONENT_COUNT>
1

> <PUBCHEM_CACTVS_TAUTO_COUNT>
9

> <PUBCHEM_CONFORMER_ID>
00B5C88E00000001

> <PUBCHEM_MMFF94_ENERGY>
72.5515

> <PUBCHEM_FEATURE_SELFOVERLAP>
66.728

> <PUBCHEM_SHAPE_FINGERPRINT>
10674148 151 18131636695344700900
1200032 147 18200887222689197626
12390115 104 17346597470191161271
12975358 362 17413894033085125945
13583140 156 17389358460310138103
13627167 48 14547910391266468979
13782708 43 15936961908826148266
13828863 39 18410016563153424665
14765038 42 18336827610733190652
14840074 17 17775010042613817233
14950920 106 17677890124380913113
15163728 17 17561089081561376583
15183329 4 12031793561078272675
15297060 5 17561369478279509320
15338160 23 18270965760464627659
15721738 15 13542200346007354764
16120349 67 17346326994024243947
1768 23 18202289095440232689
19304671 126 14117506602901647099
21033650 10 16701725151056257871
21049683 118 15652169919908460334
21315763 87 17386019342913469617
21458453 9 16734129983309054848
21585480 29 17604160328045363171
25222932 49 13118288092231133790
2838139 119 15625362529949616675
312425 54 16806167632257305873
3178227 256 17821722820237590120
38570 142 18408328800378712286
392239 28 17676481774138882547
397830 11 18041007224304741737
437795 70 13901917674125119787
4408954 87 17750532813393226131
444735 79 17095531728991844401
474 4 17897418758049041830
4756261 7 16665739376666617297
5252454 2 18264466529773179060
57724786 102 18342170012634767750

> <PUBCHEM_SHAPE_MULTIPOLES>
547.02
16.18
3.51
2.95
12.18
0
-1.05
16.06
-10.66
-2.59
0.24
3.5
-0.77
-4.96

> <PUBCHEM_SHAPE_SELFOVERLAP>
1178.986

> <PUBCHEM_SHAPE_VOLUME>
301.1

> <PUBCHEM_COORDINATE_TYPE>
2
5
10

$$$$
