40779333
  -OEChem-12032416253D

 63 67  0     1  0  0  0  0  0999 V2000
   -1.6057    3.9899   -0.5051 S   0  0  0  0  0  0  0  0  0  0  0  0
   -2.1608    4.7530    0.5965 O   0  0  0  0  0  0  0  0  0  0  0  0
   -1.3331    4.6353   -1.7750 O   0  0  0  0  0  0  0  0  0  0  0  0
    2.6749   -1.5151   -1.6199 O   0  0  0  0  0  0  0  0  0  0  0  0
    4.7251    1.2421   -0.6536 O   0  0  0  0  0  0  0  0  0  0  0  0
   -4.1829   -0.3685    0.8980 N   0  0  2  0  0  0  0  0  0  0  0  0
   -0.6026   -3.5035    0.9156 N   0  0  0  0  0  0  0  0  0  0  0  0
   -2.5687    2.6114   -0.7759 N   0  0  0  0  0  0  0  0  0  0  0  0
    0.7264   -3.6063    0.7447 N   0  0  0  0  0  0  0  0  0  0  0  0
    3.5046    1.5567    1.3388 N   0  0  0  0  0  0  0  0  0  0  0  0
   -3.3505   -1.7503   -1.1468 C   0  0  2  0  0  0  0  0  0  0  0  0
   -2.6796   -2.2555    0.1605 C   0  0  2  0  0  0  0  0  0  0  0  0
   -3.7430    0.5461   -0.1884 C   0  0  2  0  0  0  0  0  0  0  0  0
   -3.0564   -0.2454   -1.3223 C   0  0  0  0  0  0  0  0  0  0  0  0
   -4.8748   -1.8946   -0.9494 C   0  0  0  0  0  0  0  0  0  0  0  0
   -3.0659   -1.2623    1.2935 C   0  0  0  0  0  0  0  0  0  0  0  0
   -5.2824   -1.2093    0.3666 C   0  0  0  0  0  0  0  0  0  0  0  0
   -2.8595    1.6832    0.3291 C   0  0  0  0  0  0  0  0  0  0  0  0
   -1.1865   -2.5496    0.1347 C   0  0  0  0  0  0  0  0  0  0  0  0
   -0.1686   -1.9892   -0.5976 C   0  0  0  0  0  0  0  0  0  0  0  0
    0.9858   -2.6789   -0.1808 C   0  0  0  0  0  0  0  0  0  0  0  0
   -1.2607   -4.3716    1.8643 C   0  0  0  0  0  0  0  0  0  0  0  0
    2.3522   -2.4424   -0.6803 C   0  0  0  0  0  0  0  0  0  0  0  0
   -0.0883    3.2673    0.0427 C   0  0  0  0  0  0  0  0  0  0  0  0
    3.4743   -3.1219   -0.2666 C   0  0  0  0  0  0  0  0  0  0  0  0
    0.8998    2.9344   -0.8839 C   0  0  0  0  0  0  0  0  0  0  0  0
    0.1207    3.0296    1.4012 C   0  0  0  0  0  0  0  0  0  0  0  0
    4.5560   -2.5771   -0.9989 C   0  0  0  0  0  0  0  0  0  0  0  0
    4.0176   -1.6035   -1.8082 C   0  0  0  0  0  0  0  0  0  0  0  0
    2.0970    2.3639   -0.4519 C   0  0  0  0  0  0  0  0  0  0  0  0
    1.3181    2.4590    1.8331 C   0  0  0  0  0  0  0  0  0  0  0  0
    2.3063    2.1264    0.9066 C   0  0  0  0  0  0  0  0  0  0  0  0
    4.6029    1.1604    0.5643 C   0  0  0  0  0  0  0  0  0  0  0  0
    5.7083    0.5862    1.4145 C   0  0  0  0  0  0  0  0  0  0  0  0
   -3.0127   -2.3188   -2.0196 H   0  0  0  0  0  0  0  0  0  0  0  0
   -3.1692   -3.2150    0.3853 H   0  0  0  0  0  0  0  0  0  0  0  0
   -4.6412    1.0260   -0.6055 H   0  0  0  0  0  0  0  0  0  0  0  0
   -1.9827   -0.0552   -1.3497 H   0  0  0  0  0  0  0  0  0  0  0  0
   -3.4582    0.0867   -2.2882 H   0  0  0  0  0  0  0  0  0  0  0  0
   -5.1592   -2.9529   -0.9218 H   0  0  0  0  0  0  0  0  0  0  0  0
   -5.4050   -1.4383   -1.7942 H   0  0  0  0  0  0  0  0  0  0  0  0
   -3.3705   -1.8326    2.1811 H   0  0  0  0  0  0  0  0  0  0  0  0
   -2.2034   -0.6737    1.6262 H   0  0  0  0  0  0  0  0  0  0  0  0
   -6.1783   -0.5971    0.2058 H   0  0  0  0  0  0  0  0  0  0  0  0
   -5.5702   -1.9603    1.1133 H   0  0  0  0  0  0  0  0  0  0  0  0
   -1.9213    1.2784    0.7147 H   0  0  0  0  0  0  0  0  0  0  0  0
   -3.3662    2.2261    1.1342 H   0  0  0  0  0  0  0  0  0  0  0  0
   -0.2300   -1.2057   -1.3365 H   0  0  0  0  0  0  0  0  0  0  0  0
   -2.5323    2.2054   -1.7186 H   0  0  0  0  0  0  0  0  0  0  0  0
   -1.9196   -5.0479    1.3145 H   0  0  0  0  0  0  0  0  0  0  0  0
   -0.5100   -4.9508    2.4089 H   0  0  0  0  0  0  0  0  0  0  0  0
   -1.8271   -3.7588    2.5690 H   0  0  0  0  0  0  0  0  0  0  0  0
    3.5259   -3.9128    0.4690 H   0  0  0  0  0  0  0  0  0  0  0  0
    0.7536    3.1033   -1.9470 H   0  0  0  0  0  0  0  0  0  0  0  0
   -0.6373    3.2768    2.1389 H   0  0  0  0  0  0  0  0  0  0  0  0
    5.5975   -2.8584   -0.9441 H   0  0  0  0  0  0  0  0  0  0  0  0
    4.4330   -0.9241   -2.5379 H   0  0  0  0  0  0  0  0  0  0  0  0
    2.8126    2.1298   -1.2276 H   0  0  0  0  0  0  0  0  0  0  0  0
    1.4671    2.2781    2.8946 H   0  0  0  0  0  0  0  0  0  0  0  0
    3.5802    1.4148    2.3439 H   0  0  0  0  0  0  0  0  0  0  0  0
    5.3363   -0.2788    1.9709 H   0  0  0  0  0  0  0  0  0  0  0  0
    6.0685    1.3450    2.1148 H   0  0  0  0  0  0  0  0  0  0  0  0
    6.5377    0.2669    0.7774 H   0  0  0  0  0  0  0  0  0  0  0  0
  1  2  2  0  0  0  0
  1  3  2  0  0  0  0
  1  8  1  0  0  0  0
  1 24  1  0  0  0  0
  4 23  1  0  0  0  0
  4 29  1  0  0  0  0
  5 33  2  0  0  0  0
  6 13  1  0  0  0  0
  6 16  1  0  0  0  0
  6 17  1  0  0  0  0
  7  9  1  0  0  0  0
  7 19  1  0  0  0  0
  7 22  1  0  0  0  0
  8 18  1  0  0  0  0
  8 49  1  0  0  0  0
  9 21  2  0  0  0  0
 10 32  1  0  0  0  0
 10 33  1  0  0  0  0
 10 60  1  0  0  0  0
 11 12  1  0  0  0  0
 11 14  1  0  0  0  0
 11 15  1  0  0  0  0
 11 35  1  0  0  0  0
 12 16  1  0  0  0  0
 12 19  1  0  0  0  0
 12 36  1  0  0  0  0
 13 14  1  0  0  0  0
 13 18  1  0  0  0  0
 13 37  1  0  0  0  0
 14 38  1  0  0  0  0
 14 39  1  0  0  0  0
 15 17  1  0  0  0  0
 15 40  1  0  0  0  0
 15 41  1  0  0  0  0
 16 42  1  0  0  0  0
 16 43  1  0  0  0  0
 17 44  1  0  0  0  0
 17 45  1  0  0  0  0
 18 46  1  0  0  0  0
 18 47  1  0  0  0  0
 19 20  2  0  0  0  0
 20 21  1  0  0  0  0
 20 48  1  0  0  0  0
 21 23  1  0  0  0  0
 22 50  1  0  0  0  0
 22 51  1  0  0  0  0
 22 52  1  0  0  0  0
 23 25  2  0  0  0  0
 24 26  2  0  0  0  0
 24 27  1  0  0  0  0
 25 28  1  0  0  0  0
 25 53  1  0  0  0  0
 26 30  1  0  0  0  0
 26 54  1  0  0  0  0
 27 31  2  0  0  0  0
 27 55  1  0  0  0  0
 28 29  2  0  0  0  0
 28 56  1  0  0  0  0
 29 57  1  0  0  0  0
 30 32  2  0  0  0  0
 30 58  1  0  0  0  0
 31 32  1  0  0  0  0
 31 59  1  0  0  0  0
 33 34  1  0  0  0  0
 34 61  1  0  0  0  0
 34 62  1  0  0  0  0
 34 63  1  0  0  0  0
M  END
> <PUBCHEM_COMPOUND_CID>
40779333

> <PUBCHEM_CONFORMER_RMSD>
1

> <PUBCHEM_CONFORMER_DIVERSEORDER>
1
139
112
140
97
119
8
38
121
29
129
132
135
96
103
60
126
78
104
90
142
116
48
110
109
35
124
58
5
111
91
120
57
14
143
32
47
56
49
83
15
87
144
84
113
55
45
79
118
36
68
93
125
107
77
148
63
115
147
65
108
102
105
86
114
100
117
17
12
95
134
74
122
94
3
6
141
81
54
61
44
70
62
82
88
92
20
25
136
22
34
130
80
73
106
59
19
71
13
145
123
101
98
26
33
50
137
128
23
27
64
53
133
9
37
16
99
52
67
75
2
30
76
40
41
7
39
21
85
131
89
72
69
66
24
10
146
46
127
28
51
31
138
42
43
11
4
18

> <PUBCHEM_MMFF94_PARTIAL_CHARGES>
41
1 1.45
10 -0.55
12 0.18
13 0.27
16 0.27
17 0.27
18 0.36
19 -0.33
2 -0.65
20 -0.15
21 0.29
22 0.26
23 0.14
24 -0.01
25 -0.15
26 -0.15
27 -0.15
28 -0.15
29 -0.01
3 -0.65
30 -0.15
31 -0.15
32 0.12
33 0.57
34 0.06
4 -0.28
48 0.15
49 0.42
5 -0.57
53 0.15
54 0.15
55 0.15
56 0.15
57 0.15
58 0.15
59 0.15
6 -0.81
60 0.37
7 0.31
8 -0.91
9 -0.71

> <PUBCHEM_EFFECTIVE_ROTOR_COUNT>
9.2

> <PUBCHEM_PHARMACOPHORE_FEATURES>
12
1 10 donor
1 2 acceptor
1 3 acceptor
1 4 acceptor
1 5 acceptor
1 6 cation
1 8 donor
1 9 acceptor
5 4 23 25 28 29 rings
5 7 9 19 20 21 rings
6 24 26 27 30 31 32 rings
8 6 11 12 13 14 15 16 17 rings

> <PUBCHEM_HEAVY_ATOM_COUNT>
34

> <PUBCHEM_ATOM_DEF_STEREO_COUNT>
3

> <PUBCHEM_ATOM_UDEF_STEREO_COUNT>
0

> <PUBCHEM_BOND_DEF_STEREO_COUNT>
0

> <PUBCHEM_BOND_UDEF_STEREO_COUNT>
0

> <PUBCHEM_ISOTOPIC_ATOM_COUNT>
0

> <PUBCHEM_COMPONENT_COUNT>
1

> <PUBCHEM_CACTVS_TAUTO_COUNT>
2

> <PUBCHEM_CONFORMER_ID>
026E3E4500000001

> <PUBCHEM_MMFF94_ENERGY>
61.0585

> <PUBCHEM_FEATURE_SELFOVERLAP>
60.917

> <PUBCHEM_SHAPE_FINGERPRINT>
10864689 126 17332809349544355572
10974685 15 18191025600153289316
1100329 8 17836646327577059108
12156800 1 17975955589098813074
13122387 1 18339358548337852675
13402501 40 18341046427815063146
14647877 51 18270676455720026586
14725015 67 18337658754890538403
14932702 115 17982174414133533736
150020 26 17836653298240350978
15927050 60 18124306117846347437
19319366 153 17538861178458795539
19930381 70 18266739271952985311
20642791 35 18267863874948301697
20764821 26 18265613182603228176
21860390 5 18200598124082668886
238918 7 18200293516643658218
3027735 51 18412822473809660849
3052486 1 18049434839066290322
354706 35 17189243332528850797
3737641 26 18272092690683553876
392239 28 18339365137197791826
469060 322 17612071146328563081
5047190 48 17909258432417277120
508706 21 18408888468196676862
5171179 24 18201148854885378298

> <PUBCHEM_SHAPE_MULTIPOLES>
655.17
9.79
7.04
1.62
3.53
3.29
0.11
-3.41
-0.31
-0.6
0.29
0.53
-0.08
2.12

> <PUBCHEM_SHAPE_SELFOVERLAP>
1402.875

> <PUBCHEM_SHAPE_VOLUME>
365.3

> <PUBCHEM_COORDINATE_TYPE>
2
5
10

$$$$
