9419221
  -OEChem-12032416363D

 49 53  0     1  0  0  0  0  0999 V2000
   -0.0886   -2.8814   -1.7092 S   0  0  0  0  0  0  0  0  0  0  0  0
    4.0205    1.2218   -2.1637 O   0  0  0  0  0  0  0  0  0  0  0  0
    1.5065   -1.8412    0.8624 N   0  0  2  0  0  0  0  0  0  0  0  0
    2.5389    0.9001   -0.3787 N   0  0  0  0  0  0  0  0  0  0  0  0
   -5.2159   -0.4509   -0.1981 N   0  0  0  0  0  0  0  0  0  0  0  0
    3.2573   -0.3027    1.7707 C   0  0  1  0  0  0  0  0  0  0  0  0
    0.9594    0.5056    1.5350 C   0  0  2  0  0  0  0  0  0  0  0  0
    2.1958    0.5628    2.4287 C   0  0  0  0  0  0  0  0  0  0  0  0
    2.7541   -1.7536    1.6296 C   0  0  0  0  0  0  0  0  0  0  0  0
    0.4736   -0.9593    1.4238 C   0  0  0  0  0  0  0  0  0  0  0  0
    3.6267    0.3221    0.4233 C   0  0  0  0  0  0  0  0  0  0  0  0
    1.2466    1.0908    0.1492 C   0  0  0  0  0  0  0  0  0  0  0  0
    1.0327   -3.2212    0.7889 C   0  0  0  0  0  0  0  0  0  0  0  0
    0.3106    1.7561   -0.5763 C   0  0  0  0  0  0  0  0  0  0  0  0
    2.9041    1.3489   -1.6603 C   0  0  0  0  0  0  0  0  0  0  0  0
    0.6493    2.2298   -1.9048 C   0  0  0  0  0  0  0  0  0  0  0  0
    1.8543    2.0406   -2.4422 C   0  0  0  0  0  0  0  0  0  0  0  0
   -1.0523    1.9976   -0.0545 C   0  0  0  0  0  0  0  0  0  0  0  0
   -0.1871   -3.3510   -0.0767 C   0  0  0  0  0  0  0  0  0  0  0  0
   -2.0553    1.0594   -0.2786 C   0  0  0  0  0  0  0  0  0  0  0  0
   -1.4193   -3.8137    0.2808 C   0  0  0  0  0  0  0  0  0  0  0  0
   -1.3222    3.1626    0.6574 C   0  0  0  0  0  0  0  0  0  0  0  0
   -2.3229   -3.7854   -0.8204 C   0  0  0  0  0  0  0  0  0  0  0  0
   -3.3401    1.2882    0.2138 C   0  0  0  0  0  0  0  0  0  0  0  0
   -1.7291   -3.3003   -1.9647 C   0  0  0  0  0  0  0  0  0  0  0  0
   -2.6070    3.3913    1.1499 C   0  0  0  0  0  0  0  0  0  0  0  0
   -3.6159    2.4541    0.9281 C   0  0  0  0  0  0  0  0  0  0  0  0
   -4.3748    0.3289   -0.0135 C   0  0  0  0  0  0  0  0  0  0  0  0
    4.1556   -0.3246    2.4004 H   0  0  0  0  0  0  0  0  0  0  0  0
    0.1800    1.0840    2.0439 H   0  0  0  0  0  0  0  0  0  0  0  0
    2.5483    1.5950    2.5468 H   0  0  0  0  0  0  0  0  0  0  0  0
    1.9619    0.1860    3.4319 H   0  0  0  0  0  0  0  0  0  0  0  0
    3.5318   -2.3485    1.1346 H   0  0  0  0  0  0  0  0  0  0  0  0
    2.6166   -2.1787    2.6332 H   0  0  0  0  0  0  0  0  0  0  0  0
    0.1792   -1.3085    2.4236 H   0  0  0  0  0  0  0  0  0  0  0  0
   -0.4323   -0.9696    0.8123 H   0  0  0  0  0  0  0  0  0  0  0  0
    4.3279    1.1485    0.6051 H   0  0  0  0  0  0  0  0  0  0  0  0
    4.1722   -0.4008   -0.1969 H   0  0  0  0  0  0  0  0  0  0  0  0
    0.8164   -3.6134    1.7921 H   0  0  0  0  0  0  0  0  0  0  0  0
    1.8174   -3.8637    0.3668 H   0  0  0  0  0  0  0  0  0  0  0  0
   -0.1161    2.7453   -2.4775 H   0  0  0  0  0  0  0  0  0  0  0  0
    2.0970    2.3935   -3.4374 H   0  0  0  0  0  0  0  0  0  0  0  0
   -1.8430    0.1537   -0.8433 H   0  0  0  0  0  0  0  0  0  0  0  0
   -0.5456    3.9015    0.8384 H   0  0  0  0  0  0  0  0  0  0  0  0
   -1.6771   -4.1568    1.2745 H   0  0  0  0  0  0  0  0  0  0  0  0
   -3.3564   -4.1034   -0.7753 H   0  0  0  0  0  0  0  0  0  0  0  0
   -2.1805   -3.1707   -2.9382 H   0  0  0  0  0  0  0  0  0  0  0  0
   -2.8216    4.2991    1.7063 H   0  0  0  0  0  0  0  0  0  0  0  0
   -4.6124    2.6468    1.3184 H   0  0  0  0  0  0  0  0  0  0  0  0
  1 19  1  0  0  0  0
  1 25  1  0  0  0  0
  2 15  2  0  0  0  0
  3  9  1  0  0  0  0
  3 10  1  0  0  0  0
  3 13  1  0  0  0  0
  4 11  1  0  0  0  0
  4 12  1  0  0  0  0
  4 15  1  0  0  0  0
  5 28  3  0  0  0  0
  6  8  1  0  0  0  0
  6  9  1  0  0  0  0
  6 11  1  0  0  0  0
  6 29  1  0  0  0  0
  7  8  1  0  0  0  0
  7 10  1  0  0  0  0
  7 12  1  0  0  0  0
  7 30  1  0  0  0  0
  8 31  1  0  0  0  0
  8 32  1  0  0  0  0
  9 33  1  0  0  0  0
  9 34  1  0  0  0  0
 10 35  1  0  0  0  0
 10 36  1  0  0  0  0
 11 37  1  0  0  0  0
 11 38  1  0  0  0  0
 12 14  2  0  0  0  0
 13 19  1  0  0  0  0
 13 39  1  0  0  0  0
 13 40  1  0  0  0  0
 14 16  1  0  0  0  0
 14 18  1  0  0  0  0
 15 17  1  0  0  0  0
 16 17  2  0  0  0  0
 16 41  1  0  0  0  0
 17 42  1  0  0  0  0
 18 20  1  0  0  0  0
 18 22  2  0  0  0  0
 19 21  2  0  0  0  0
 20 24  2  0  0  0  0
 20 43  1  0  0  0  0
 21 23  1  0  0  0  0
 21 45  1  0  0  0  0
 22 26  1  0  0  0  0
 22 44  1  0  0  0  0
 23 25  2  0  0  0  0
 23 46  1  0  0  0  0
 24 27  1  0  0  0  0
 24 28  1  0  0  0  0
 25 47  1  0  0  0  0
 26 27  2  0  0  0  0
 26 48  1  0  0  0  0
 27 49  1  0  0  0  0
M  END
> <PUBCHEM_COMPOUND_CID>
9419221

> <PUBCHEM_CONFORMER_RMSD>
0.8

> <PUBCHEM_CONFORMER_DIVERSEORDER>
1
6
10
7
9
4
8
5
3
2

> <PUBCHEM_MMFF94_PARTIAL_CHARGES>
35
1 -0.08
10 0.27
11 0.3
12 -0.03
13 0.45
14 -0.03
15 0.62
16 -0.15
17 -0.14
18 0.03
19 -0.14
2 -0.57
20 -0.15
21 -0.15
22 -0.15
23 -0.15
24 0.07
25 -0.11
26 -0.15
27 -0.15
28 0.48
3 -0.81
4 -0.47
41 0.15
42 0.15
43 0.15
44 0.15
45 0.15
46 0.15
47 0.15
48 0.15
49 0.15
5 -0.56
7 0.14
9 0.27

> <PUBCHEM_EFFECTIVE_ROTOR_COUNT>
4

> <PUBCHEM_PHARMACOPHORE_FEATURES>
8
1 2 acceptor
1 3 cation
1 5 acceptor
5 1 19 21 23 25 rings
6 18 20 22 24 26 27 rings
6 3 6 7 8 9 10 rings
6 4 12 14 15 16 17 rings
6 4 6 7 8 11 12 rings

> <PUBCHEM_HEAVY_ATOM_COUNT>
28

> <PUBCHEM_ATOM_DEF_STEREO_COUNT>
2

> <PUBCHEM_ATOM_UDEF_STEREO_COUNT>
0

> <PUBCHEM_BOND_DEF_STEREO_COUNT>
0

> <PUBCHEM_BOND_UDEF_STEREO_COUNT>
0

> <PUBCHEM_ISOTOPIC_ATOM_COUNT>
0

> <PUBCHEM_COMPONENT_COUNT>
1

> <PUBCHEM_CACTVS_TAUTO_COUNT>
1

> <PUBCHEM_CONFORMER_ID>
008FB9D500000001

> <PUBCHEM_MMFF94_ENERGY>
68.3534

> <PUBCHEM_FEATURE_SELFOVERLAP>
42.147

> <PUBCHEM_SHAPE_FINGERPRINT>
10064457 181 18199451191578065642
1100329 8 18195797695059655153
11118852 30 18338798910126216921
11513181 2 17773019878927549335
11578080 2 16984087549767666080
12156800 1 18341905073683223366
12422481 6 17759784971727784706
12788726 201 17977676629480263366
13947920 75 18338801238241136836
14289585 56 17385726872398449340
14468879 13 9954883178913228007
14863182 85 18268151950783571777
15664445 248 17036156705080012148
17492 54 17683562487757578598
1813 80 16747650338683232377
19319366 153 17754179996303577395
23559900 14 17765438647675175797
3052486 1 18267297823337708111
3493558 16 13486772079349285403
35225 105 17703210893410092991
463206 1 18269814541957541103
513532 50 16832338581066651935
57527573 199 16392100774146370929
6287921 2 18051980216699648379
6438718 38 17986938846666218415
7226269 152 16532286294832985572

> <PUBCHEM_SHAPE_MULTIPOLES>
559.26
6.46
5.39
2.24
4.16
5.2
-0.67
-2.57
0.77
3.25
-1.28
-2.15
-0.49
-2.6

> <PUBCHEM_SHAPE_SELFOVERLAP>
1222.081

> <PUBCHEM_SHAPE_VOLUME>
302.9

> <PUBCHEM_COORDINATE_TYPE>
2
5
10

$$$$
