71693204
  -OEChem-12032416303D

 66 68  0     1  0  0  0  0  0999 V2000
    4.6920   -0.5402   -1.7935 O   0  0  0  0  0  0  0  0  0  0  0  0
   -7.2791    0.0974    0.3255 O   0  0  0  0  0  0  0  0  0  0  0  0
    4.9995   -5.2990   -0.1002 O   0  0  0  0  0  0  0  0  0  0  0  0
    4.7493   -4.0633    1.7888 O   0  0  0  0  0  0  0  0  0  0  0  0
   -7.3850   -1.9939   -0.6306 O   0  0  0  0  0  0  0  0  0  0  0  0
    4.3952    0.7642    0.1094 N   0  0  0  0  0  0  0  0  0  0  0  0
   -2.2753    0.4144    1.4845 N   0  0  0  0  0  0  0  0  0  0  0  0
   -1.1368   -0.6474   -0.1017 N   0  0  0  0  0  0  0  0  0  0  0  0
    1.8039    1.9216   -0.8852 C   0  0  1  0  0  0  0  0  0  0  0  0
    2.9733    2.7133   -0.2483 C   0  0  1  0  0  0  0  0  0  0  0  0
    0.4666    2.3417   -0.2565 C   0  0  0  0  0  0  0  0  0  0  0  0
    0.4406    2.1103    1.2662 C   0  0  2  0  0  0  0  0  0  0  0  0
    1.7466    2.1151   -2.4037 C   0  0  0  0  0  0  0  0  0  0  0  0
    1.6963    2.6300    1.9364 C   0  0  0  0  0  0  0  0  0  0  0  0
    2.8141    2.9066    1.2415 C   0  0  0  0  0  0  0  0  0  0  0  0
    4.3194    2.0380   -0.5346 C   0  0  0  0  0  0  0  0  0  0  0  0
    0.2146    0.6307    1.5962 C   0  0  0  0  0  0  0  0  0  0  0  0
    1.0450    3.4253   -2.7470 C   0  0  0  0  0  0  0  0  0  0  0  0
    1.0415    0.9347   -3.0644 C   0  0  0  0  0  0  0  0  0  0  0  0
    1.6235    2.8682    3.4190 C   0  0  0  0  0  0  0  0  0  0  0  0
   -1.0467    0.1142    0.9654 C   0  0  0  0  0  0  0  0  0  0  0  0
    4.5774   -0.4386   -0.5750 C   0  0  0  0  0  0  0  0  0  0  0  0
   -3.2214   -0.1939    0.6999 C   0  0  0  0  0  0  0  0  0  0  0  0
   -2.4857   -0.8502   -0.2830 C   0  0  0  0  0  0  0  0  0  0  0  0
    4.6176   -1.6300    0.3650 C   0  0  0  0  0  0  0  0  0  0  0  0
   -4.6147   -0.2253    0.7636 C   0  0  0  0  0  0  0  0  0  0  0  0
   -3.1639   -1.5867   -1.2688 C   0  0  0  0  0  0  0  0  0  0  0  0
    4.8163   -2.9494   -0.3740 C   0  0  0  0  0  0  0  0  0  0  0  0
   -5.2735   -0.9630   -0.2255 C   0  0  0  0  0  0  0  0  0  0  0  0
   -4.5629   -1.6324   -1.2245 C   0  0  0  0  0  0  0  0  0  0  0  0
    4.8474   -4.1275    0.5713 C   0  0  0  0  0  0  0  0  0  0  0  0
   -6.7269   -1.0332   -0.2112 C   0  0  0  0  0  0  0  0  0  0  0  0
   -8.7082    0.1482    0.3950 C   0  0  0  0  0  0  0  0  0  0  0  0
    1.9468    0.8535   -0.6811 H   0  0  0  0  0  0  0  0  0  0  0  0
    3.0151    3.7195   -0.6839 H   0  0  0  0  0  0  0  0  0  0  0  0
   -0.3836    1.8654   -0.7516 H   0  0  0  0  0  0  0  0  0  0  0  0
    0.3151    3.4224   -0.3842 H   0  0  0  0  0  0  0  0  0  0  0  0
   -0.4109    2.6883    1.6535 H   0  0  0  0  0  0  0  0  0  0  0  0
    2.7575    2.1524   -2.8224 H   0  0  0  0  0  0  0  0  0  0  0  0
    3.6709    3.3223    1.7684 H   0  0  0  0  0  0  0  0  0  0  0  0
    5.1394    2.6432   -0.1295 H   0  0  0  0  0  0  0  0  0  0  0  0
    4.5069    1.9368   -1.6070 H   0  0  0  0  0  0  0  0  0  0  0  0
    0.1428    0.4832    2.6810 H   0  0  0  0  0  0  0  0  0  0  0  0
    1.0585    0.0156    1.2603 H   0  0  0  0  0  0  0  0  0  0  0  0
    1.4646    4.2823   -2.2118 H   0  0  0  0  0  0  0  0  0  0  0  0
    1.1766    3.6340   -3.8160 H   0  0  0  0  0  0  0  0  0  0  0  0
   -0.0371    3.3909   -2.5825 H   0  0  0  0  0  0  0  0  0  0  0  0
    0.0019    0.8345   -2.7374 H   0  0  0  0  0  0  0  0  0  0  0  0
    1.0333    1.0550   -4.1533 H   0  0  0  0  0  0  0  0  0  0  0  0
    1.5589   -0.0048   -2.8419 H   0  0  0  0  0  0  0  0  0  0  0  0
    0.7941    3.5427    3.6552 H   0  0  0  0  0  0  0  0  0  0  0  0
    2.5396    3.3249    3.8084 H   0  0  0  0  0  0  0  0  0  0  0  0
    1.4719    1.9273    3.9561 H   0  0  0  0  0  0  0  0  0  0  0  0
    4.3689    0.7401    1.1249 H   0  0  0  0  0  0  0  0  0  0  0  0
   -2.4567    0.9839    2.3005 H   0  0  0  0  0  0  0  0  0  0  0  0
    3.6780   -1.6522    0.9307 H   0  0  0  0  0  0  0  0  0  0  0  0
    5.4312   -1.4743    1.0839 H   0  0  0  0  0  0  0  0  0  0  0  0
   -5.1394    0.2943    1.5580 H   0  0  0  0  0  0  0  0  0  0  0  0
   -2.6205   -2.1092   -2.0497 H   0  0  0  0  0  0  0  0  0  0  0  0
    5.7621   -2.9290   -0.9271 H   0  0  0  0  0  0  0  0  0  0  0  0
    3.9977   -3.1036   -1.0863 H   0  0  0  0  0  0  0  0  0  0  0  0
   -5.0869   -2.2003   -1.9903 H   0  0  0  0  0  0  0  0  0  0  0  0
    5.0199   -6.0686    0.5078 H   0  0  0  0  0  0  0  0  0  0  0  0
   -8.9936    1.1038    0.8425 H   0  0  0  0  0  0  0  0  0  0  0  0
   -9.0838   -0.6629    1.0258 H   0  0  0  0  0  0  0  0  0  0  0  0
   -9.1369    0.0870   -0.6096 H   0  0  0  0  0  0  0  0  0  0  0  0
  1 22  2  0  0  0  0
  2 32  1  0  0  0  0
  2 33  1  0  0  0  0
  3 31  1  0  0  0  0
  3 63  1  0  0  0  0
  4 31  2  0  0  0  0
  5 32  2  0  0  0  0
  6 16  1  0  0  0  0
  6 22  1  0  0  0  0
  6 54  1  0  0  0  0
  7 21  1  0  0  0  0
  7 23  1  0  0  0  0
  7 55  1  0  0  0  0
  8 21  2  0  0  0  0
  8 24  1  0  0  0  0
  9 10  1  0  0  0  0
  9 11  1  0  0  0  0
  9 13  1  0  0  0  0
  9 34  1  0  0  0  0
 10 15  1  0  0  0  0
 10 16  1  0  0  0  0
 10 35  1  0  0  0  0
 11 12  1  0  0  0  0
 11 36  1  0  0  0  0
 11 37  1  0  0  0  0
 12 14  1  0  0  0  0
 12 17  1  0  0  0  0
 12 38  1  0  0  0  0
 13 18  1  0  0  0  0
 13 19  1  0  0  0  0
 13 39  1  0  0  0  0
 14 15  2  0  0  0  0
 14 20  1  0  0  0  0
 15 40  1  0  0  0  0
 16 41  1  0  0  0  0
 16 42  1  0  0  0  0
 17 21  1  0  0  0  0
 17 43  1  0  0  0  0
 17 44  1  0  0  0  0
 18 45  1  0  0  0  0
 18 46  1  0  0  0  0
 18 47  1  0  0  0  0
 19 48  1  0  0  0  0
 19 49  1  0  0  0  0
 19 50  1  0  0  0  0
 20 51  1  0  0  0  0
 20 52  1  0  0  0  0
 20 53  1  0  0  0  0
 22 25  1  0  0  0  0
 23 24  2  0  0  0  0
 23 26  1  0  0  0  0
 24 27  1  0  0  0  0
 25 28  1  0  0  0  0
 25 56  1  0  0  0  0
 25 57  1  0  0  0  0
 26 29  2  0  0  0  0
 26 58  1  0  0  0  0
 27 30  2  0  0  0  0
 27 59  1  0  0  0  0
 28 31  1  0  0  0  0
 28 60  1  0  0  0  0
 28 61  1  0  0  0  0
 29 30  1  0  0  0  0
 29 32  1  0  0  0  0
 30 62  1  0  0  0  0
 33 64  1  0  0  0  0
 33 65  1  0  0  0  0
 33 66  1  0  0  0  0
M  END
> <PUBCHEM_COMPOUND_CID>
71693204

> <PUBCHEM_CONFORMER_RMSD>
1.2

> <PUBCHEM_CONFORMER_DIVERSEORDER>
1
37
16
32
36
15
11
31
18
34
19
27
9
33
23
20
25
12
26
13
29
14
24
21
8
22
17
28
2
4
10
5
7
6
30
35
3

> <PUBCHEM_MMFF94_PARTIAL_CHARGES>
35
1 -0.57
10 0.14
12 0.14
14 -0.28
15 -0.29
16 0.3
17 0.18
2 -0.43
20 0.14
21 0.01
22 0.57
23 -0.15
24 0.23
25 0.06
26 -0.15
27 -0.15
28 0.06
29 0.09
3 -0.65
30 -0.15
31 0.66
32 0.63
33 0.28
4 -0.57
40 0.15
5 -0.57
54 0.37
55 0.27
58 0.15
59 0.15
6 -0.73
62 0.15
63 0.5
7 0.03
8 -0.57

> <PUBCHEM_EFFECTIVE_ROTOR_COUNT>
11.8

> <PUBCHEM_PHARMACOPHORE_FEATURES>
12
1 1 acceptor
1 3 acceptor
1 4 acceptor
1 5 acceptor
1 6 donor
1 7 donor
3 13 18 19 hydrophobe
3 3 4 31 anion
3 7 8 21 cation
5 7 8 21 23 24 rings
6 23 24 26 27 29 30 rings
6 9 10 11 12 14 15 rings

> <PUBCHEM_HEAVY_ATOM_COUNT>
33

> <PUBCHEM_ATOM_DEF_STEREO_COUNT>
3

> <PUBCHEM_ATOM_UDEF_STEREO_COUNT>
0

> <PUBCHEM_BOND_DEF_STEREO_COUNT>
0

> <PUBCHEM_BOND_UDEF_STEREO_COUNT>
0

> <PUBCHEM_ISOTOPIC_ATOM_COUNT>
0

> <PUBCHEM_COMPONENT_COUNT>
1

> <PUBCHEM_CACTVS_TAUTO_COUNT>
14

> <PUBCHEM_CONFORMER_ID>
0445F39400000001

> <PUBCHEM_MMFF94_ENERGY>
62.6718

> <PUBCHEM_FEATURE_SELFOVERLAP>
61.06

> <PUBCHEM_SHAPE_FINGERPRINT>
10622 236 18193278482177426514
11135609 149 18263060193965516286
11796584 16 17488470856604356357
131258 38 18129651037010353950
13165053 137 14295384111720433194
13533116 47 18341895229132253449
13947947 73 18335693893779666895
14068700 675 18200887175819090724
15183329 4 17560532793519066457
18681886 176 15409782560581468512
19315092 285 18340489963863729962
20775530 9 18117850893764184538
21315764 119 18334295409694401365
23559900 14 18113901593910017859
3004659 81 17059507368848767673
345986 75 18130507436261268832
4073 2 17983010351975888257
4093350 32 17896604066492204956
484985 159 17400642624335567822
5109719 28 8357963524946032175
57527573 199 15753149291753382524
70251023 43 18042966476621575210

> <PUBCHEM_SHAPE_MULTIPOLES>
634.83
16.93
5.07
2.48
36.01
5.29
-0.36
14.65
-0.08
-12.28
0.93
-2.12
-2.49
-1.68

> <PUBCHEM_SHAPE_SELFOVERLAP>
1333.381

> <PUBCHEM_SHAPE_VOLUME>
356.9

> <PUBCHEM_COORDINATE_TYPE>
2
5
10

$$$$
