11943110
  -OEChem-12032416363D

 59 63  0     1  0  0  0  0  0999 V2000
    1.5086    2.5845    1.4950 O   0  0  0  0  0  0  0  0  0  0  0  0
   -1.3301    0.7470   -2.4754 O   0  0  0  0  0  0  0  0  0  0  0  0
    5.8443    1.4145   -0.6235 O   0  0  0  0  0  0  0  0  0  0  0  0
    0.3624    0.6720   -0.8879 N   0  0  0  0  0  0  0  0  0  0  0  0
    4.4269   -0.3150   -0.0085 N   0  0  0  0  0  0  0  0  0  0  0  0
   -0.7535    2.3129    1.3067 N   0  0  0  0  0  0  0  0  0  0  0  0
    6.5610   -1.8539    0.3928 N   0  0  0  0  0  0  0  0  0  0  0  0
    9.1773   -0.9216    0.0029 N   0  0  0  0  0  0  0  0  0  0  0  0
    0.7297    0.5219    0.5144 C   0  0  1  0  0  0  0  0  0  0  0  0
    3.1895    0.4004   -0.2112 C   0  0  2  0  0  0  0  0  0  0  0  0
    2.1120   -0.0975    0.7515 C   0  0  0  0  0  0  0  0  0  0  0  0
    2.6988    0.2399   -1.6461 C   0  0  0  0  0  0  0  0  0  0  0  0
    1.4084    1.0148   -1.8547 C   0  0  0  0  0  0  0  0  0  0  0  0
    0.5536    1.9009    1.1246 C   0  0  0  0  0  0  0  0  0  0  0  0
   -0.9705    0.7244   -1.2976 C   0  0  0  0  0  0  0  0  0  0  0  0
   -2.0311    0.8330   -0.2606 C   0  0  0  0  0  0  0  0  0  0  0  0
   -1.9322    1.6666    0.8689 C   0  0  0  0  0  0  0  0  0  0  0  0
    5.6676    0.2625   -0.2357 C   0  0  0  0  0  0  0  0  0  0  0  0
   -3.2574    0.2166   -0.5631 C   0  0  0  0  0  0  0  0  0  0  0  0
   -3.0852    1.9155    1.6313 C   0  0  0  0  0  0  0  0  0  0  0  0
   -4.3791    0.4359    0.2351 C   0  0  0  0  0  0  0  0  0  0  0  0
   -4.2967    1.2960    1.3241 C   0  0  0  0  0  0  0  0  0  0  0  0
   -5.6339   -0.2096   -0.0847 C   0  0  0  0  0  0  0  0  0  0  0  0
    6.8445   -0.6144   -0.0060 C   0  0  0  0  0  0  0  0  0  0  0  0
   -5.9690   -1.4521    0.4573 C   0  0  0  0  0  0  0  0  0  0  0  0
   -6.5199    0.4296   -0.9542 C   0  0  0  0  0  0  0  0  0  0  0  0
   -7.1851   -2.0526    0.1313 C   0  0  0  0  0  0  0  0  0  0  0  0
    8.1018   -0.1358   -0.2028 C   0  0  0  0  0  0  0  0  0  0  0  0
   -5.0294   -2.1510    1.3912 C   0  0  0  0  0  0  0  0  0  0  0  0
   -7.7360   -0.1708   -1.2803 C   0  0  0  0  0  0  0  0  0  0  0  0
   -8.0685   -1.4119   -0.7375 C   0  0  0  0  0  0  0  0  0  0  0  0
   -7.5665   -3.3814    0.6973 C   0  0  0  0  0  0  0  0  0  0  0  0
    7.6365   -2.6397    0.5983 C   0  0  0  0  0  0  0  0  0  0  0  0
    8.9215   -2.1818    0.4069 C   0  0  0  0  0  0  0  0  0  0  0  0
    0.0101   -0.1470    1.0041 H   0  0  0  0  0  0  0  0  0  0  0  0
    3.3825    1.4629   -0.0198 H   0  0  0  0  0  0  0  0  0  0  0  0
    2.4315    0.0630    1.7891 H   0  0  0  0  0  0  0  0  0  0  0  0
    2.0176   -1.1865    0.6321 H   0  0  0  0  0  0  0  0  0  0  0  0
    2.5332   -0.8223   -1.8695 H   0  0  0  0  0  0  0  0  0  0  0  0
    3.4577    0.5947   -2.3536 H   0  0  0  0  0  0  0  0  0  0  0  0
    1.5936    2.0910   -1.7502 H   0  0  0  0  0  0  0  0  0  0  0  0
    1.0446    0.8553   -2.8754 H   0  0  0  0  0  0  0  0  0  0  0  0
    4.3811   -1.2940    0.2605 H   0  0  0  0  0  0  0  0  0  0  0  0
   -0.8826    3.1209    1.9110 H   0  0  0  0  0  0  0  0  0  0  0  0
   -3.3422   -0.4251   -1.4391 H   0  0  0  0  0  0  0  0  0  0  0  0
   -3.0433    2.5749    2.4961 H   0  0  0  0  0  0  0  0  0  0  0  0
   -5.1643    1.4938    1.9491 H   0  0  0  0  0  0  0  0  0  0  0  0
   -6.2782    1.3975   -1.3877 H   0  0  0  0  0  0  0  0  0  0  0  0
    8.3226    0.8734   -0.5264 H   0  0  0  0  0  0  0  0  0  0  0  0
   -5.3256   -1.9602    2.4281 H   0  0  0  0  0  0  0  0  0  0  0  0
   -5.0216   -3.2326    1.2209 H   0  0  0  0  0  0  0  0  0  0  0  0
   -3.9862   -1.8458    1.2743 H   0  0  0  0  0  0  0  0  0  0  0  0
   -8.4236    0.3278   -1.9571 H   0  0  0  0  0  0  0  0  0  0  0  0
   -9.0194   -1.8662   -1.0033 H   0  0  0  0  0  0  0  0  0  0  0  0
   -7.4682   -3.3873    1.7879 H   0  0  0  0  0  0  0  0  0  0  0  0
   -8.6111   -3.6280    0.4759 H   0  0  0  0  0  0  0  0  0  0  0  0
   -6.9458   -4.1741    0.2675 H   0  0  0  0  0  0  0  0  0  0  0  0
    7.4318   -3.6524    0.9229 H   0  0  0  0  0  0  0  0  0  0  0  0
    9.7852   -2.8139    0.5725 H   0  0  0  0  0  0  0  0  0  0  0  0
  1 14  2  0  0  0  0
  2 15  2  0  0  0  0
  3 18  2  0  0  0  0
  4  9  1  0  0  0  0
  4 13  1  0  0  0  0
  4 15  1  0  0  0  0
  5 10  1  0  0  0  0
  5 18  1  0  0  0  0
  5 43  1  0  0  0  0
  6 14  1  0  0  0  0
  6 17  1  0  0  0  0
  6 44  1  0  0  0  0
  7 24  2  0  0  0  0
  7 33  1  0  0  0  0
  8 28  2  0  0  0  0
  8 34  1  0  0  0  0
  9 11  1  0  0  0  0
  9 14  1  0  0  0  0
  9 35  1  0  0  0  0
 10 11  1  0  0  0  0
 10 12  1  0  0  0  0
 10 36  1  0  0  0  0
 11 37  1  0  0  0  0
 11 38  1  0  0  0  0
 12 13  1  0  0  0  0
 12 39  1  0  0  0  0
 12 40  1  0  0  0  0
 13 41  1  0  0  0  0
 13 42  1  0  0  0  0
 15 16  1  0  0  0  0
 16 17  2  0  0  0  0
 16 19  1  0  0  0  0
 17 20  1  0  0  0  0
 18 24  1  0  0  0  0
 19 21  2  0  0  0  0
 19 45  1  0  0  0  0
 20 22  2  0  0  0  0
 20 46  1  0  0  0  0
 21 22  1  0  0  0  0
 21 23  1  0  0  0  0
 22 47  1  0  0  0  0
 23 25  1  0  0  0  0
 23 26  2  0  0  0  0
 24 28  1  0  0  0  0
 25 27  2  0  0  0  0
 25 29  1  0  0  0  0
 26 30  1  0  0  0  0
 26 48  1  0  0  0  0
 27 31  1  0  0  0  0
 27 32  1  0  0  0  0
 28 49  1  0  0  0  0
 29 50  1  0  0  0  0
 29 51  1  0  0  0  0
 29 52  1  0  0  0  0
 30 31  2  0  0  0  0
 30 53  1  0  0  0  0
 31 54  1  0  0  0  0
 32 55  1  0  0  0  0
 32 56  1  0  0  0  0
 32 57  1  0  0  0  0
 33 34  2  0  0  0  0
 33 58  1  0  0  0  0
 34 59  1  0  0  0  0
M  END
> <PUBCHEM_COMPOUND_CID>
11943110

> <PUBCHEM_CONFORMER_RMSD>
0.8

> <PUBCHEM_CONFORMER_DIVERSEORDER>
1
4
7
12
5
13
11
8
3
2
10
6
9
14

> <PUBCHEM_MMFF94_PARTIAL_CHARGES>
41
1 -0.57
10 0.3
13 0.3
14 0.57
15 0.54
16 0.09
17 0.12
18 0.54
19 -0.15
2 -0.57
20 -0.15
22 -0.15
24 0.4
25 -0.14
26 -0.15
27 -0.14
28 0.16
29 0.14
3 -0.57
30 -0.15
31 -0.15
32 0.14
33 0.16
34 0.16
4 -0.66
43 0.37
44 0.37
45 0.15
46 0.15
47 0.15
48 0.15
49 0.15
5 -0.73
53 0.15
54 0.15
58 0.15
59 0.15
6 -0.55
7 -0.62
8 -0.62
9 0.36

> <PUBCHEM_EFFECTIVE_ROTOR_COUNT>
5

> <PUBCHEM_PHARMACOPHORE_FEATURES>
12
1 1 acceptor
1 2 acceptor
1 3 acceptor
1 5 donor
1 6 donor
1 7 acceptor
1 8 acceptor
6 16 17 19 20 21 22 rings
6 23 25 26 27 30 31 rings
6 4 9 10 11 12 13 rings
6 7 8 24 28 33 34 rings
7 4 6 9 14 15 16 17 rings

> <PUBCHEM_HEAVY_ATOM_COUNT>
34

> <PUBCHEM_ATOM_DEF_STEREO_COUNT>
2

> <PUBCHEM_ATOM_UDEF_STEREO_COUNT>
0

> <PUBCHEM_BOND_DEF_STEREO_COUNT>
0

> <PUBCHEM_BOND_UDEF_STEREO_COUNT>
0

> <PUBCHEM_ISOTOPIC_ATOM_COUNT>
0

> <PUBCHEM_COMPONENT_COUNT>
1

> <PUBCHEM_CACTVS_TAUTO_COUNT>
6

> <PUBCHEM_CONFORMER_ID>
00B63CC600000001

> <PUBCHEM_MMFF94_ENERGY>
120.7147

> <PUBCHEM_FEATURE_SELFOVERLAP>
60.928

> <PUBCHEM_SHAPE_FINGERPRINT>
10 15 16917342650276263608
10162869 55 18259987085838258212
10369192 42 10087643693714650817
10677351 14 17821453452773453318
11135609 99 18341332305291956311
11181472 205 8141820403960316646
11297750 10 18201708561633207161
11386260 185 15936699254696705358
11497681 19 18260546714732667202
12035758 1 16128656349359407932
12166972 35 18259708883352957268
12664476 115 8214144063065275399
13383668 251 14548151273869058267
13383668 90 17167857574604908687
13540713 4 16413530899800977276
13726171 33 9294475809885570767
13782708 43 18334858328839246592
14415361 349 17458062681349073042
14849402 71 12895061942493054027
15198563 99 15719953511155867302
15347590 135 16487259846044550762
15461852 350 18040999527021798828
16992727 255 7853565816898680490
16994733 274 9727631687504851502
18603816 31 18340480162670038903
20105231 36 17346605141504081494
2026 5 18333450963221842371
21095123 293 10303806601657040242
21130935 74 18127975214197335514
212700 22 18408317779145529818
21756936 100 11167939156956800997
21781055 127 13613972162275608552
21987483 16 17486758956013680679
22149856 69 16343161155011288936
23389318 12 17895203216612799598
23559900 14 18262797505867367473
23569917 315 18408330977685655434
23569943 247 17827353286055478154
23576562 1 14852467573733777407
249057 25 18337406971577373228
25025965 108 17917698098978111767
3383291 50 17988926686490765103
3711267 37 9799414463818962651
437795 150 16298679403383790771
4461854 278 17060340746833008078
4516262 110 11599734926562593041
4625314 4 18186237337854974509
504579 68 13767930100928110038
5104073 3 16700911383391434482
5385378 56 14476969960961121204
5470011 282 18187365463203430588
5758199 1 13470688144132704988
58083652 198 17847057809149380361
5937810 71 10881666989550573535
59521660 218 18058438962412725816
59682541 35 17561077013009086794
636775 72 10159434111123825875
9689198 14 10592045769173438798
9896288 288 17845098350547730097
9953998 17 14692566633367841173
9962374 69 17346306155185886869

> <PUBCHEM_SHAPE_MULTIPOLES>
657.19
28.17
2.66
1.54
29.95
1.43
0.33
26
0.75
-1.32
-1.29
-1.16
-0.7
-0.45

> <PUBCHEM_SHAPE_SELFOVERLAP>
1451.579

> <PUBCHEM_SHAPE_VOLUME>
348.4

> <PUBCHEM_COORDINATE_TYPE>
2
5
10

$$$$
