45783445
  -OEChem-12032416273D

 51 53  0     1  0  0  0  0  0999 V2000
   -2.4259    2.0952   -0.0736 O   0  0  0  0  0  0  0  0  0  0  0  0
    4.0690   -0.1571    0.8842 O   0  0  0  0  0  0  0  0  0  0  0  0
    5.3668   -2.1498   -0.5965 O   0  0  0  0  0  0  0  0  0  0  0  0
   -3.5460   -1.2160    0.2875 N   0  0  1  0  0  0  0  0  0  0  0  0
   -0.9725    0.5506    0.6466 N   0  0  0  0  0  0  0  0  0  0  0  0
   -1.1498    2.6024   -0.3495 N   0  0  0  0  0  0  0  0  0  0  0  0
    1.5732    2.8497   -0.5301 N   0  0  0  0  0  0  0  0  0  0  0  0
   -3.4756    0.1202    0.9118 C   0  0  1  0  0  0  0  0  0  0  0  0
   -3.5460   -0.1514    2.4259 C   0  0  0  0  0  0  0  0  0  0  0  0
   -4.2961   -2.0656    1.2126 C   0  0  0  0  0  0  0  0  0  0  0  0
   -3.7162   -1.6586    2.5522 C   0  0  0  0  0  0  0  0  0  0  0  0
   -4.1391   -1.1976   -1.0436 C   0  0  0  0  0  0  0  0  0  0  0  0
   -3.1254   -0.8082   -2.1332 C   0  0  0  0  0  0  0  0  0  0  0  0
   -2.2310    0.8847    0.5122 C   0  0  0  0  0  0  0  0  0  0  0  0
   -1.9712   -1.8141   -2.1482 C   0  0  0  0  0  0  0  0  0  0  0  0
   -3.7591   -0.7315   -3.5246 C   0  0  0  0  0  0  0  0  0  0  0  0
   -0.3470    1.6350    0.1039 C   0  0  0  0  0  0  0  0  0  0  0  0
    1.0829    1.7216    0.0309 C   0  0  0  0  0  0  0  0  0  0  0  0
    1.8714    0.6911    0.5170 C   0  0  0  0  0  0  0  0  0  0  0  0
    3.2519    0.8269    0.4210 C   0  0  0  0  0  0  0  0  0  0  0  0
    2.9196    2.9462   -0.6062 C   0  0  0  0  0  0  0  0  0  0  0  0
    3.7941    1.9730   -0.1500 C   0  0  0  0  0  0  0  0  0  0  0  0
    3.5676   -1.4927    0.8396 C   0  0  0  0  0  0  0  0  0  0  0  0
    4.7266   -2.4498    0.6379 C   0  0  0  0  0  0  0  0  0  0  0  0
    6.4778   -3.0045   -0.8278 C   0  0  0  0  0  0  0  0  0  0  0  0
   -4.3571    0.7212    0.6475 H   0  0  0  0  0  0  0  0  0  0  0  0
   -2.6653    0.1889    2.9812 H   0  0  0  0  0  0  0  0  0  0  0  0
   -4.4237    0.3521    2.8496 H   0  0  0  0  0  0  0  0  0  0  0  0
   -5.3717   -1.8500    1.1824 H   0  0  0  0  0  0  0  0  0  0  0  0
   -4.1398   -3.1305    1.0141 H   0  0  0  0  0  0  0  0  0  0  0  0
   -4.3630   -1.9333    3.3906 H   0  0  0  0  0  0  0  0  0  0  0  0
   -2.7386   -2.1323    2.7058 H   0  0  0  0  0  0  0  0  0  0  0  0
   -5.0168   -0.5394   -1.0844 H   0  0  0  0  0  0  0  0  0  0  0  0
   -4.5106   -2.2024   -1.2902 H   0  0  0  0  0  0  0  0  0  0  0  0
   -2.7163    0.1857   -1.9347 H   0  0  0  0  0  0  0  0  0  0  0  0
   -2.3311   -2.8317   -2.3356 H   0  0  0  0  0  0  0  0  0  0  0  0
   -1.2538   -1.5638   -2.9376 H   0  0  0  0  0  0  0  0  0  0  0  0
   -1.4193   -1.8164   -1.2031 H   0  0  0  0  0  0  0  0  0  0  0  0
   -4.1762   -1.6990   -3.8238 H   0  0  0  0  0  0  0  0  0  0  0  0
   -3.0203   -0.4323   -4.2755 H   0  0  0  0  0  0  0  0  0  0  0  0
   -4.5692    0.0052   -3.5381 H   0  0  0  0  0  0  0  0  0  0  0  0
    1.4172   -0.1766    0.9834 H   0  0  0  0  0  0  0  0  0  0  0  0
    3.2919    3.8588   -1.0597 H   0  0  0  0  0  0  0  0  0  0  0  0
    4.8668    2.1056   -0.2381 H   0  0  0  0  0  0  0  0  0  0  0  0
    2.8796   -1.6300   -0.0046 H   0  0  0  0  0  0  0  0  0  0  0  0
    3.0536   -1.7177    1.7803 H   0  0  0  0  0  0  0  0  0  0  0  0
    5.4513   -2.3289    1.4515 H   0  0  0  0  0  0  0  0  0  0  0  0
    4.3625   -3.4830    0.6272 H   0  0  0  0  0  0  0  0  0  0  0  0
    7.2297   -2.8778   -0.0428 H   0  0  0  0  0  0  0  0  0  0  0  0
    6.1552   -4.0490   -0.8762 H   0  0  0  0  0  0  0  0  0  0  0  0
    6.9267   -2.7334   -1.7871 H   0  0  0  0  0  0  0  0  0  0  0  0
  1  6  1  0  0  0  0
  1 14  1  0  0  0  0
  2 20  1  0  0  0  0
  2 23  1  0  0  0  0
  3 24  1  0  0  0  0
  3 25  1  0  0  0  0
  4  8  1  0  0  0  0
  4 10  1  0  0  0  0
  4 12  1  0  0  0  0
  5 14  2  0  0  0  0
  5 17  1  0  0  0  0
  6 17  2  0  0  0  0
  7 18  2  0  0  0  0
  7 21  1  0  0  0  0
  8  9  1  0  0  0  0
  8 14  1  0  0  0  0
  8 26  1  0  0  0  0
  9 11  1  0  0  0  0
  9 27  1  0  0  0  0
  9 28  1  0  0  0  0
 10 11  1  0  0  0  0
 10 29  1  0  0  0  0
 10 30  1  0  0  0  0
 11 31  1  0  0  0  0
 11 32  1  0  0  0  0
 12 13  1  0  0  0  0
 12 33  1  0  0  0  0
 12 34  1  0  0  0  0
 13 15  1  0  0  0  0
 13 16  1  0  0  0  0
 13 35  1  0  0  0  0
 15 36  1  0  0  0  0
 15 37  1  0  0  0  0
 15 38  1  0  0  0  0
 16 39  1  0  0  0  0
 16 40  1  0  0  0  0
 16 41  1  0  0  0  0
 17 18  1  0  0  0  0
 18 19  1  0  0  0  0
 19 20  2  0  0  0  0
 19 42  1  0  0  0  0
 20 22  1  0  0  0  0
 21 22  2  0  0  0  0
 21 43  1  0  0  0  0
 22 44  1  0  0  0  0
 23 24  1  0  0  0  0
 23 45  1  0  0  0  0
 23 46  1  0  0  0  0
 24 47  1  0  0  0  0
 24 48  1  0  0  0  0
 25 49  1  0  0  0  0
 25 50  1  0  0  0  0
 25 51  1  0  0  0  0
M  END
> <PUBCHEM_COMPOUND_CID>
45783445

> <PUBCHEM_CONFORMER_RMSD>
1

> <PUBCHEM_CONFORMER_DIVERSEORDER>
1
63
62
39
102
3
17
21
81
75
35
56
105
77
76
101
91
64
2
25
93
71
107
55
89
4
100
33
79
16
60
26
6
85
66
78
18
52
9
20
47
99
22
73
14
45
10
98
59
72
67
106
103
37
44
19
27
94
42
24
46
95
74
43
49
36
40
68
104
83
31
65
32
90
34
11
80
51
50
30
88
92
61
48
87
109
84
15
86
5
53
12
7
29
69
110
13
23
38
28
41
96
82
8
70
57
97
58
54
108

> <PUBCHEM_MMFF94_PARTIAL_CHARGES>
23
1 -0.02
10 0.27
12 0.27
14 0.3
17 0.46
18 0.36
19 -0.15
2 -0.36
20 0.08
21 0.16
22 -0.15
23 0.28
24 0.28
25 0.28
3 -0.56
4 -0.81
42 0.15
43 0.15
44 0.15
5 -0.57
6 -0.41
7 -0.62
8 0.45

> <PUBCHEM_EFFECTIVE_ROTOR_COUNT>
9

> <PUBCHEM_PHARMACOPHORE_FEATURES>
9
1 2 acceptor
1 3 acceptor
1 4 cation
1 7 acceptor
3 13 15 16 hydrophobe
3 5 6 17 cation
5 1 5 6 14 17 rings
5 4 8 9 10 11 rings
6 7 18 19 20 21 22 rings

> <PUBCHEM_HEAVY_ATOM_COUNT>
25

> <PUBCHEM_ATOM_DEF_STEREO_COUNT>
1

> <PUBCHEM_ATOM_UDEF_STEREO_COUNT>
0

> <PUBCHEM_BOND_DEF_STEREO_COUNT>
0

> <PUBCHEM_BOND_UDEF_STEREO_COUNT>
0

> <PUBCHEM_ISOTOPIC_ATOM_COUNT>
0

> <PUBCHEM_COMPONENT_COUNT>
1

> <PUBCHEM_CACTVS_TAUTO_COUNT>
1

> <PUBCHEM_CONFORMER_ID>
02BA999500000001

> <PUBCHEM_MMFF94_ENERGY>
51.4135

> <PUBCHEM_FEATURE_SELFOVERLAP>
45.675

> <PUBCHEM_SHAPE_FINGERPRINT>
10042902 136 18059851736955737926
10319926 262 14908189646482239022
10622 236 17773013462240985143
10928967 22 18343021052194753198
11135926 11 18192433185416263236
11552529 35 15553608572645476941
12107183 9 18194703474700350145
12422481 6 17632021836528544910
12553582 1 18268146642066941048
12633257 1 16630251393423754299
13103583 49 16773799160780840818
14081887 123 15554171484028237679
14251757 17 17459173218172903289
14910302 57 17023176180356820595
15119646 57 14346365510999700055
15537594 2 18199197350299637260
15961568 22 14420380497680816309
17492 89 18336271214287238298
20554085 129 15984000142039774043
20645477 70 18115017623322436304
20693207 138 17458348575656427738
20775530 9 18339640036811440946
21033650 10 15430026639216036069
221490 88 18260838089935789848
22393880 68 16878485921507691833
22620623 9 16226315011083055519
22907989 373 12612760142050205929
235170 7 16950839335707739500
23559900 14 18261109664760000368
23598288 3 18272658904849310105
2838139 119 13407093478963689054
312425 83 14418686992492734114
46194498 28 17096369616849974012
5104073 3 11383832654057885580
5486654 36 18263379000835244360
602551 16 16199038386091718189
613672 6 18261938692442833656
7064713 232 17132121220927446975
7970288 3 18195811992748074259
9709674 26 18187089476778472280

> <PUBCHEM_SHAPE_MULTIPOLES>
476.96
12.32
3.58
2.39
12.52
0.38
-1.22
-11.43
-0.14
5
-0.58
-4.93
-1.53
0.02

> <PUBCHEM_SHAPE_SELFOVERLAP>
992.799

> <PUBCHEM_SHAPE_VOLUME>
273.9

> <PUBCHEM_COORDINATE_TYPE>
2
5
10

$$$$
