38030412
  -OEChem-12032416313D

 67 70  0     1  0  0  0  0  0999 V2000
   -2.1590    0.0424    0.9077 O   0  0  0  0  0  0  0  0  0  0  0  0
    2.0007   -2.1221   -0.6182 O   0  0  0  0  0  0  0  0  0  0  0  0
    3.0262    0.6323   -0.7499 N   0  0  0  0  0  0  0  0  0  0  0  0
   -2.9423    1.5189    2.3945 N   0  0  0  0  0  0  0  0  0  0  0  0
   -4.0054    0.7547    1.9506 N   0  0  0  0  0  0  0  0  0  0  0  0
   -6.1582   -2.3014   -0.2900 N   0  0  0  0  0  0  0  0  0  0  0  0
    0.3647    1.9397   -1.2394 C   0  0  1  0  0  0  0  0  0  0  0  0
    1.7302    2.6701   -1.1981 C   0  0  1  0  0  0  0  0  0  0  0  0
   -0.6723    2.6932   -0.3926 C   0  0  0  0  0  0  0  0  0  0  0  0
   -0.2356    2.8288    1.0784 C   0  0  2  0  0  0  0  0  0  0  0  0
   -0.1525    1.7813   -2.6727 C   0  0  0  0  0  0  0  0  0  0  0  0
    1.2019    3.2924    1.1985 C   0  0  0  0  0  0  0  0  0  0  0  0
    2.0621    3.2263    0.1668 C   0  0  0  0  0  0  0  0  0  0  0  0
    2.8641    1.7496   -1.6639 C   0  0  0  0  0  0  0  0  0  0  0  0
   -0.4553    1.5186    1.8428 C   0  0  0  0  0  0  0  0  0  0  0  0
   -0.8272    3.0671   -3.1398 C   0  0  0  0  0  0  0  0  0  0  0  0
   -1.1148    0.6014   -2.7638 C   0  0  0  0  0  0  0  0  0  0  0  0
    1.6166    3.8770    2.5201 C   0  0  0  0  0  0  0  0  0  0  0  0
   -1.8857    1.0681    1.7597 C   0  0  0  0  0  0  0  0  0  0  0  0
    4.0960   -0.2551   -1.1902 C   0  0  0  0  0  0  0  0  0  0  0  0
    4.2680   -1.4290   -0.2632 C   0  0  0  0  0  0  0  0  0  0  0  0
   -3.5017   -0.0933    1.0846 C   0  0  0  0  0  0  0  0  0  0  0  0
    3.2116   -2.3071   -0.0215 C   0  0  0  0  0  0  0  0  0  0  0  0
    5.5005   -1.6331    0.3571 C   0  0  0  0  0  0  0  0  0  0  0  0
   -4.1357   -1.1213    0.3114 C   0  0  0  0  0  0  0  0  0  0  0  0
    3.3878   -3.3894    0.8406 C   0  0  0  0  0  0  0  0  0  0  0  0
    5.6767   -2.7154    1.2193 C   0  0  0  0  0  0  0  0  0  0  0  0
    4.6203   -3.5936    1.4611 C   0  0  0  0  0  0  0  0  0  0  0  0
   -3.4025   -1.9186   -0.5606 C   0  0  0  0  0  0  0  0  0  0  0  0
   -5.4987   -1.3509    0.4093 C   0  0  0  0  0  0  0  0  0  0  0  0
    0.9777   -3.0681   -0.3141 C   0  0  0  0  0  0  0  0  0  0  0  0
   -4.0456   -2.9070   -1.2974 C   0  0  0  0  0  0  0  0  0  0  0  0
   -5.4125   -3.0567   -1.1273 C   0  0  0  0  0  0  0  0  0  0  0  0
    0.4838    0.9384   -0.8069 H   0  0  0  0  0  0  0  0  0  0  0  0
    1.7073    3.5302   -1.8792 H   0  0  0  0  0  0  0  0  0  0  0  0
   -1.6683    2.2506   -0.4780 H   0  0  0  0  0  0  0  0  0  0  0  0
   -0.7756    3.7248   -0.7565 H   0  0  0  0  0  0  0  0  0  0  0  0
   -0.8801    3.6006    1.5237 H   0  0  0  0  0  0  0  0  0  0  0  0
    0.6740    1.5658   -3.3572 H   0  0  0  0  0  0  0  0  0  0  0  0
    3.0691    3.6184    0.2964 H   0  0  0  0  0  0  0  0  0  0  0  0
    3.7972    2.3271   -1.7144 H   0  0  0  0  0  0  0  0  0  0  0  0
    2.6716    1.3854   -2.6782 H   0  0  0  0  0  0  0  0  0  0  0  0
   -0.2132    1.6502    2.9043 H   0  0  0  0  0  0  0  0  0  0  0  0
    0.2031    0.7235    1.4725 H   0  0  0  0  0  0  0  0  0  0  0  0
   -1.8020    3.2375   -2.6709 H   0  0  0  0  0  0  0  0  0  0  0  0
   -1.0237    2.9988   -4.2171 H   0  0  0  0  0  0  0  0  0  0  0  0
   -0.1982    3.9507   -2.9967 H   0  0  0  0  0  0  0  0  0  0  0  0
   -2.0060    0.7434   -2.1449 H   0  0  0  0  0  0  0  0  0  0  0  0
   -0.6273   -0.3277   -2.4492 H   0  0  0  0  0  0  0  0  0  0  0  0
   -1.4519    0.4617   -3.7969 H   0  0  0  0  0  0  0  0  0  0  0  0
    0.9566    4.7069    2.7925 H   0  0  0  0  0  0  0  0  0  0  0  0
    2.6404    4.2655    2.4959 H   0  0  0  0  0  0  0  0  0  0  0  0
    1.5710    3.1212    3.3098 H   0  0  0  0  0  0  0  0  0  0  0  0
    3.2411    0.9730    0.1866 H   0  0  0  0  0  0  0  0  0  0  0  0
    5.0364    0.3060   -1.2617 H   0  0  0  0  0  0  0  0  0  0  0  0
    3.8833   -0.6470   -2.1932 H   0  0  0  0  0  0  0  0  0  0  0  0
    6.3339   -0.9584    0.1803 H   0  0  0  0  0  0  0  0  0  0  0  0
    2.6141   -4.1116    1.0769 H   0  0  0  0  0  0  0  0  0  0  0  0
    6.6362   -2.8744    1.7026 H   0  0  0  0  0  0  0  0  0  0  0  0
    4.7586   -4.4359    2.1329 H   0  0  0  0  0  0  0  0  0  0  0  0
   -2.3307   -1.7965   -0.6906 H   0  0  0  0  0  0  0  0  0  0  0  0
   -6.1320   -0.7659    1.0700 H   0  0  0  0  0  0  0  0  0  0  0  0
    0.0880   -2.7702   -0.8785 H   0  0  0  0  0  0  0  0  0  0  0  0
    0.7045   -3.0403    0.7463 H   0  0  0  0  0  0  0  0  0  0  0  0
    1.2440   -4.0753   -0.6518 H   0  0  0  0  0  0  0  0  0  0  0  0
   -3.4944   -3.5402   -1.9832 H   0  0  0  0  0  0  0  0  0  0  0  0
   -5.9610   -3.8132   -1.6787 H   0  0  0  0  0  0  0  0  0  0  0  0
  1 19  1  0  0  0  0
  1 22  1  0  0  0  0
  2 23  1  0  0  0  0
  2 31  1  0  0  0  0
  3 14  1  0  0  0  0
  3 20  1  0  0  0  0
  3 54  1  0  0  0  0
  4  5  1  0  0  0  0
  4 19  2  0  0  0  0
  5 22  2  0  0  0  0
  6 30  1  0  0  0  0
  6 33  2  0  0  0  0
  7  8  1  0  0  0  0
  7  9  1  0  0  0  0
  7 11  1  0  0  0  0
  7 34  1  0  0  0  0
  8 13  1  0  0  0  0
  8 14  1  0  0  0  0
  8 35  1  0  0  0  0
  9 10  1  0  0  0  0
  9 36  1  0  0  0  0
  9 37  1  0  0  0  0
 10 12  1  0  0  0  0
 10 15  1  0  0  0  0
 10 38  1  0  0  0  0
 11 16  1  0  0  0  0
 11 17  1  0  0  0  0
 11 39  1  0  0  0  0
 12 13  2  0  0  0  0
 12 18  1  0  0  0  0
 13 40  1  0  0  0  0
 14 41  1  0  0  0  0
 14 42  1  0  0  0  0
 15 19  1  0  0  0  0
 15 43  1  0  0  0  0
 15 44  1  0  0  0  0
 16 45  1  0  0  0  0
 16 46  1  0  0  0  0
 16 47  1  0  0  0  0
 17 48  1  0  0  0  0
 17 49  1  0  0  0  0
 17 50  1  0  0  0  0
 18 51  1  0  0  0  0
 18 52  1  0  0  0  0
 18 53  1  0  0  0  0
 20 21  1  0  0  0  0
 20 55  1  0  0  0  0
 20 56  1  0  0  0  0
 21 23  1  0  0  0  0
 21 24  2  0  0  0  0
 22 25  1  0  0  0  0
 23 26  2  0  0  0  0
 24 27  1  0  0  0  0
 24 57  1  0  0  0  0
 25 29  1  0  0  0  0
 25 30  2  0  0  0  0
 26 28  1  0  0  0  0
 26 58  1  0  0  0  0
 27 28  2  0  0  0  0
 27 59  1  0  0  0  0
 28 60  1  0  0  0  0
 29 32  2  0  0  0  0
 29 61  1  0  0  0  0
 30 62  1  0  0  0  0
 31 63  1  0  0  0  0
 31 64  1  0  0  0  0
 31 65  1  0  0  0  0
 32 33  1  0  0  0  0
 32 66  1  0  0  0  0
 33 67  1  0  0  0  0
M  END
> <PUBCHEM_COMPOUND_CID>
38030412

> <PUBCHEM_CONFORMER_RMSD>
1.2

> <PUBCHEM_CONFORMER_DIVERSEORDER>
1
22
72
122
52
108
25
55
128
14
27
66
134
148
34
76
17
62
81
26
124
47
21
142
101
3
50
105
44
19
136
144
48
56
107
118
123
65
84
2
140
43
109
89
104
42
92
131
113
120
85
82
125
12
98
46
23
138
39
69
150
103
117
68
126
61
147
106
36
15
90
33
100
49
132
141
31
130
13
6
129
110
87
80
79
102
149
88
16
9
20
145
139
57
51
58
40
93
24
83
7
121
29
96
54
35
97
91
37
73
94
99
71
32
63
127
116
111
78
10
114
45
115
77
119
41
8
137
135
67
70
74
146
133
11
75
60
143
5
53
59
38
112
64
18
4
86
30
28
95

> <PUBCHEM_MMFF94_PARTIAL_CHARGES>
38
1 -0.28
10 0.14
12 -0.28
13 -0.29
14 0.27
15 0.18
18 0.14
19 0.3
2 -0.36
20 0.41
21 -0.14
22 0.43
23 0.08
24 -0.15
25 0.05
26 -0.15
27 -0.15
28 -0.15
29 -0.15
3 -0.9
30 0.16
31 0.28
32 -0.15
33 0.16
4 -0.34
40 0.15
5 -0.34
54 0.36
57 0.15
58 0.15
59 0.15
6 -0.62
60 0.15
61 0.15
62 0.15
66 0.15
67 0.15
8 0.14

> <PUBCHEM_EFFECTIVE_ROTOR_COUNT>
9.8

> <PUBCHEM_PHARMACOPHORE_FEATURES>
9
1 2 acceptor
1 3 cation
1 3 donor
1 6 acceptor
3 11 16 17 hydrophobe
5 1 4 5 19 22 rings
6 21 23 24 26 27 28 rings
6 6 25 29 30 32 33 rings
6 7 8 9 10 12 13 rings

> <PUBCHEM_HEAVY_ATOM_COUNT>
33

> <PUBCHEM_ATOM_DEF_STEREO_COUNT>
3

> <PUBCHEM_ATOM_UDEF_STEREO_COUNT>
0

> <PUBCHEM_BOND_DEF_STEREO_COUNT>
0

> <PUBCHEM_BOND_UDEF_STEREO_COUNT>
0

> <PUBCHEM_ISOTOPIC_ATOM_COUNT>
0

> <PUBCHEM_COMPONENT_COUNT>
1

> <PUBCHEM_CACTVS_TAUTO_COUNT>
1

> <PUBCHEM_CONFORMER_ID>
02444C4C00000001

> <PUBCHEM_MMFF94_ENERGY>
79.3427

> <PUBCHEM_FEATURE_SELFOVERLAP>
45.671

> <PUBCHEM_SHAPE_FINGERPRINT>
10622 236 18409733928219344994
11135926 11 17460907174286339532
11200772 48 8357958023224931650
11552529 35 17979353054538457082
12156800 1 16808379870414707332
12977781 61 18121182512084644416
131258 38 18200311160142781942
13165053 137 15377653250222221571
14068700 675 18272928341317377075
14674994 50 17901383394350480997
14705955 166 15550810027721173272
15163728 17 8070023385150803016
16993438 75 17752473261851567726
17138139 8 17841730787044790812
18336668 15 18410014338070370819
18681886 176 15839891708956509128
19315092 285 18270961370459041733
20775530 9 18042700411812962018
21458453 9 15625640821633244866
25019877 29 13998257123580414101
25222932 49 16838819047335693615
3027735 51 16735526152965259440
4394409 98 18059844040517060999
46194498 28 16301788907749286753
463206 1 18340502113476988755
469060 322 18262798454590864154
474144 1 18341057422747270575
484985 159 17905041457020188318
56638632 33 18337102471159513387
66674814 147 18187931724049610186

> <PUBCHEM_SHAPE_MULTIPOLES>
647.46
11.56
5.92
2.67
4.31
0.12
0.68
-16.82
-1.85
-3.22
-0.65
0.92
2.77
-2.37

> <PUBCHEM_SHAPE_SELFOVERLAP>
1376.089

> <PUBCHEM_SHAPE_VOLUME>
359.6

> <PUBCHEM_COORDINATE_TYPE>
2
5
10

$$$$
