45360668
  -OEChem-12032416293D

 61 64  0     1  0  0  0  0  0999 V2000
   -0.8271   -3.1439    1.9767 O   0  0  0  0  0  0  0  0  0  0  0  0
    5.6262    0.4927   -0.5916 O   0  0  0  0  0  0  0  0  0  0  0  0
   -4.3386    2.8482    0.3642 O   0  0  0  0  0  0  0  0  0  0  0  0
    8.1226    1.8453   -1.5748 O   0  0  0  0  0  0  0  0  0  0  0  0
   -0.7828    0.3551    0.9382 N   0  0  1  0  0  0  0  0  0  0  0  0
   -1.5212   -1.2866    3.0907 N   0  0  0  0  0  0  0  0  0  0  0  0
    2.7572   -0.1397    0.3390 N   0  0  0  0  0  0  0  0  0  0  0  0
   -2.9399    2.0234   -1.2947 N   0  0  0  0  0  0  0  0  0  0  0  0
   -0.7754   -1.0975    0.7231 C   0  0  1  0  0  0  0  0  0  0  0  0
    1.3238   -0.0384    0.1165 C   0  0  1  0  0  0  0  0  0  0  0  0
    0.6157   -1.3933    0.1408 C   0  0  0  0  0  0  0  0  0  0  0  0
   -1.8079    0.8195    1.8661 C   0  0  1  0  0  0  0  0  0  0  0  0
    0.5979    0.7609    1.1900 C   0  0  0  0  0  0  0  0  0  0  0  0
   -1.6565    0.1457    3.2209 C   0  0  0  0  0  0  0  0  0  0  0  0
   -1.0188   -1.9244    1.9823 C   0  0  0  0  0  0  0  0  0  0  0  0
   -1.8324    2.3418    2.0098 C   0  0  0  0  0  0  0  0  0  0  0  0
   -1.9409    3.0214    0.6517 C   0  0  0  0  0  0  0  0  0  0  0  0
    3.4482   -0.5465   -0.8781 C   0  0  0  0  0  0  0  0  0  0  0  0
   -3.2137    2.6361   -0.0806 C   0  0  0  0  0  0  0  0  0  0  0  0
    4.9296   -0.6713   -0.6681 C   0  0  0  0  0  0  0  0  0  0  0  0
    5.7732   -1.7492   -0.5306 C   0  0  0  0  0  0  0  0  0  0  0  0
    6.9289    0.1546   -0.4030 C   0  0  0  0  0  0  0  0  0  0  0  0
   -3.9842    1.5624   -2.1785 C   0  0  0  0  0  0  0  0  0  0  0  0
    7.0715   -1.2129   -0.3583 C   0  0  0  0  0  0  0  0  0  0  0  0
   -4.3757    0.1415   -1.8926 C   0  0  0  0  0  0  0  0  0  0  0  0
    7.8802    1.2690   -0.2891 C   0  0  0  0  0  0  0  0  0  0  0  0
   -3.7235   -0.9058   -2.5432 C   0  0  0  0  0  0  0  0  0  0  0  0
   -5.3915   -0.1314   -0.9765 C   0  0  0  0  0  0  0  0  0  0  0  0
   -4.0870   -2.2261   -2.2778 C   0  0  0  0  0  0  0  0  0  0  0  0
   -5.7551   -1.4516   -0.7109 C   0  0  0  0  0  0  0  0  0  0  0  0
   -5.1028   -2.4989   -1.3616 C   0  0  0  0  0  0  0  0  0  0  0  0
   -1.5590   -1.3656    0.0050 H   0  0  0  0  0  0  0  0  0  0  0  0
    1.1257    0.4543   -0.8476 H   0  0  0  0  0  0  0  0  0  0  0  0
    1.1703   -2.1152    0.7529 H   0  0  0  0  0  0  0  0  0  0  0  0
    0.5442   -1.8035   -0.8731 H   0  0  0  0  0  0  0  0  0  0  0  0
   -2.7783    0.5056    1.4566 H   0  0  0  0  0  0  0  0  0  0  0  0
    0.9378    0.4739    2.1926 H   0  0  0  0  0  0  0  0  0  0  0  0
    0.7677    1.8335    1.0580 H   0  0  0  0  0  0  0  0  0  0  0  0
   -0.7770    0.5048    3.7665 H   0  0  0  0  0  0  0  0  0  0  0  0
   -2.5339    0.3327    3.8496 H   0  0  0  0  0  0  0  0  0  0  0  0
   -0.9361    2.7057    2.5268 H   0  0  0  0  0  0  0  0  0  0  0  0
   -2.6886    2.6291    2.6335 H   0  0  0  0  0  0  0  0  0  0  0  0
   -1.6991   -1.8514    3.9156 H   0  0  0  0  0  0  0  0  0  0  0  0
    3.1154    0.7698    0.6321 H   0  0  0  0  0  0  0  0  0  0  0  0
   -1.9852    4.1077    0.8004 H   0  0  0  0  0  0  0  0  0  0  0  0
   -1.0557    2.8455    0.0333 H   0  0  0  0  0  0  0  0  0  0  0  0
    3.2768    0.1808   -1.6816 H   0  0  0  0  0  0  0  0  0  0  0  0
    3.0717   -1.5156   -1.2270 H   0  0  0  0  0  0  0  0  0  0  0  0
   -1.9777    1.8597   -1.5758 H   0  0  0  0  0  0  0  0  0  0  0  0
    5.4900   -2.7919   -0.5513 H   0  0  0  0  0  0  0  0  0  0  0  0
   -4.8555    2.2227   -2.0943 H   0  0  0  0  0  0  0  0  0  0  0  0
   -3.6122    1.6587   -3.2049 H   0  0  0  0  0  0  0  0  0  0  0  0
    7.9944   -1.7575   -0.2191 H   0  0  0  0  0  0  0  0  0  0  0  0
    8.8370    0.9258    0.1170 H   0  0  0  0  0  0  0  0  0  0  0  0
    7.4848    2.0493    0.3691 H   0  0  0  0  0  0  0  0  0  0  0  0
   -2.9285   -0.7063   -3.2567 H   0  0  0  0  0  0  0  0  0  0  0  0
   -5.9107    0.6739   -0.4643 H   0  0  0  0  0  0  0  0  0  0  0  0
    8.7531    2.5741   -1.4439 H   0  0  0  0  0  0  0  0  0  0  0  0
   -3.5782   -3.0417   -2.7833 H   0  0  0  0  0  0  0  0  0  0  0  0
   -6.5461   -1.6642    0.0022 H   0  0  0  0  0  0  0  0  0  0  0  0
   -5.3855   -3.5269   -1.1544 H   0  0  0  0  0  0  0  0  0  0  0  0
  1 15  2  0  0  0  0
  2 20  1  0  0  0  0
  2 22  1  0  0  0  0
  3 19  2  0  0  0  0
  4 26  1  0  0  0  0
  4 58  1  0  0  0  0
  5  9  1  0  0  0  0
  5 12  1  0  0  0  0
  5 13  1  0  0  0  0
  6 14  1  0  0  0  0
  6 15  1  0  0  0  0
  6 43  1  0  0  0  0
  7 10  1  0  0  0  0
  7 18  1  0  0  0  0
  7 44  1  0  0  0  0
  8 19  1  0  0  0  0
  8 23  1  0  0  0  0
  8 49  1  0  0  0  0
  9 11  1  0  0  0  0
  9 15  1  0  0  0  0
  9 32  1  0  0  0  0
 10 11  1  0  0  0  0
 10 13  1  0  0  0  0
 10 33  1  0  0  0  0
 11 34  1  0  0  0  0
 11 35  1  0  0  0  0
 12 14  1  0  0  0  0
 12 16  1  0  0  0  0
 12 36  1  0  0  0  0
 13 37  1  0  0  0  0
 13 38  1  0  0  0  0
 14 39  1  0  0  0  0
 14 40  1  0  0  0  0
 16 17  1  0  0  0  0
 16 41  1  0  0  0  0
 16 42  1  0  0  0  0
 17 19  1  0  0  0  0
 17 45  1  0  0  0  0
 17 46  1  0  0  0  0
 18 20  1  0  0  0  0
 18 47  1  0  0  0  0
 18 48  1  0  0  0  0
 20 21  2  0  0  0  0
 21 24  1  0  0  0  0
 21 50  1  0  0  0  0
 22 24  2  0  0  0  0
 22 26  1  0  0  0  0
 23 25  1  0  0  0  0
 23 51  1  0  0  0  0
 23 52  1  0  0  0  0
 24 53  1  0  0  0  0
 25 27  2  0  0  0  0
 25 28  1  0  0  0  0
 26 54  1  0  0  0  0
 26 55  1  0  0  0  0
 27 29  1  0  0  0  0
 27 56  1  0  0  0  0
 28 30  2  0  0  0  0
 28 57  1  0  0  0  0
 29 31  2  0  0  0  0
 29 59  1  0  0  0  0
 30 31  1  0  0  0  0
 30 60  1  0  0  0  0
 31 61  1  0  0  0  0
M  END
> <PUBCHEM_COMPOUND_CID>
45360668

> <PUBCHEM_CONFORMER_RMSD>
1

> <PUBCHEM_CONFORMER_DIVERSEORDER>
1
135
57
195
197
113
149
168
105
51
31
72
41
136
186
187
179
130
143
132
49
101
47
191
76
6
138
73
90
67
111
94
141
102
68
170
158
147
30
114
88
117
109
188
173
20
33
156
22
160
194
183
77
153
196
86
172
110
106
9
61
45
165
124
157
127
84
62
104
78
108
128
182
54
164
93
44
169
26
19
198
99
91
97
52
174
112
200
140
139
25
178
95
177
119
50
137
87
35
166
55
189
131
89
42
32
92
176
66
16
65
81
4
148
115
134
146
43
144
37
75
29
190
122
79
120
118
56
69
17
70
15
98
181
46
80
23
155
145
192
96
63
121
129
21
116
74
151
10
12
185
60
71
133
123
5
28
201
27
152
126
175
82
40
150
83
142
48
58
184
100
180
7
24
161
163
171
107
14
125
85
11
38
193
36
59
167
159
64
154
18
199
2
103
13
39
34
162
53
8
3

> <PUBCHEM_MMFF94_PARTIAL_CHARGES>
40
1 -0.57
10 0.27
12 0.27
13 0.27
14 0.3
15 0.57
17 0.06
18 0.45
19 0.57
2 -0.28
20 -0.04
21 -0.15
22 -0.04
23 0.44
24 -0.15
25 -0.14
26 0.46
27 -0.15
28 -0.15
29 -0.15
3 -0.57
30 -0.15
31 -0.15
4 -0.68
43 0.37
44 0.36
49 0.37
5 -0.81
50 0.15
53 0.15
56 0.15
57 0.15
58 0.4
59 0.15
6 -0.73
60 0.15
61 0.15
7 -0.9
8 -0.73
9 0.33

> <PUBCHEM_EFFECTIVE_ROTOR_COUNT>
11.2

> <PUBCHEM_PHARMACOPHORE_FEATURES>
14
1 1 acceptor
1 2 acceptor
1 3 acceptor
1 4 acceptor
1 4 donor
1 5 cation
1 6 donor
1 7 cation
1 7 donor
1 8 donor
5 2 20 21 22 24 rings
5 5 9 10 11 13 rings
6 25 27 28 29 30 31 rings
6 5 6 9 12 14 15 rings

> <PUBCHEM_HEAVY_ATOM_COUNT>
31

> <PUBCHEM_ATOM_DEF_STEREO_COUNT>
3

> <PUBCHEM_ATOM_UDEF_STEREO_COUNT>
0

> <PUBCHEM_BOND_DEF_STEREO_COUNT>
0

> <PUBCHEM_BOND_UDEF_STEREO_COUNT>
0

> <PUBCHEM_ISOTOPIC_ATOM_COUNT>
0

> <PUBCHEM_COMPONENT_COUNT>
1

> <PUBCHEM_CACTVS_TAUTO_COUNT>
6

> <PUBCHEM_CONFORMER_ID>
02B4261C00000001

> <PUBCHEM_MMFF94_ENERGY>
50.2317

> <PUBCHEM_FEATURE_SELFOVERLAP>
71.237

> <PUBCHEM_SHAPE_FINGERPRINT>
105312 117 16950568727008824099
10554248 39 17967821501578276494
10577160 103 17897446318522098372
10577160 183 16950833731640751058
11488393 25 16197860770620613835
12373685 5 18113888370101313666
12422481 6 8646486358157527202
12988421 55 14057567783023079941
13726171 33 18196934371414691265
13941219 33 11095889263220196092
14114207 22 16015835637849100901
14400156 147 16624605590236150334
14932701 244 18343022177264454029
15461852 350 18202568367995142596
18927931 339 15195283118704449253
20101258 96 13614516329356239754
2838139 119 17168142300201377988
3117164 225 8069732010311411310
4015057 19 18409452513952685088
484985 159 14261340329107298061
4938544 92 11530773595237359500
497634 4 16486987184661783618
5104073 3 10953746655667093254
563151 74 14345783929789306784
57527573 199 11603364384518787111
6086070 43 16588022455142749596
70634741 139 17846775235061324740
77296 10 17987234435337863894

> <PUBCHEM_SHAPE_MULTIPOLES>
594.56
18.22
3.17
2.74
43.34
0.89
1.78
-4.08
-12.92
-4.71
-0.22
-2.78
-0.06
-1.38

> <PUBCHEM_SHAPE_SELFOVERLAP>
1258.867

> <PUBCHEM_SHAPE_VOLUME>
332.5

> <PUBCHEM_COORDINATE_TYPE>
2
5
10

$$$$
