45783553
  -OEChem-12032416263D

 53 56  0     1  0  0  0  0  0999 V2000
   -2.0880   -1.0080    2.0154 O   0  0  0  0  0  0  0  0  0  0  0  0
   -3.0110    1.9171   -0.8393 O   0  0  0  0  0  0  0  0  0  0  0  0
   -0.1411    2.4620   -1.5426 O   0  0  0  0  0  0  0  0  0  0  0  0
    5.0103   -0.0039   -0.4602 O   0  0  0  0  0  0  0  0  0  0  0  0
    7.7187   -0.7103   -0.4643 O   0  0  0  0  0  0  0  0  0  0  0  0
   -4.2813   -0.7266   -0.7157 N   0  0  1  0  0  0  0  0  0  0  0  0
   -1.2455   -1.1909   -0.0519 N   0  0  0  0  0  0  0  0  0  0  0  0
   -0.7226   -0.7152    2.1239 N   0  0  0  0  0  0  0  0  0  0  0  0
    3.3308   -0.0676    1.1396 N   0  0  0  0  0  0  0  0  0  0  0  0
   -3.7342   -1.6276    0.3184 C   0  0  1  0  0  0  0  0  0  0  0  0
   -3.8560   -3.0380   -0.2874 C   0  0  0  0  0  0  0  0  0  0  0  0
   -4.5371   -2.8352   -1.6334 C   0  0  0  0  0  0  0  0  0  0  0  0
   -5.2564   -1.5112   -1.4734 C   0  0  0  0  0  0  0  0  0  0  0  0
   -4.8648    0.4907   -0.1667 C   0  0  0  0  0  0  0  0  0  0  0  0
   -2.3119   -1.2771    0.7024 C   0  0  0  0  0  0  0  0  0  0  0  0
   -3.8123    1.5100    0.1799 C   0  0  0  0  0  0  0  0  0  0  0  0
   -3.4678    2.1470    1.3495 C   0  0  0  0  0  0  0  0  0  0  0  0
   -0.2956   -0.8437    0.8641 C   0  0  0  0  0  0  0  0  0  0  0  0
   -2.1454    2.8241   -0.3146 C   0  0  0  0  0  0  0  0  0  0  0  0
   -2.3855    3.0004    1.0282 C   0  0  0  0  0  0  0  0  0  0  0  0
    1.0726   -0.6341    0.4880 C   0  0  0  0  0  0  0  0  0  0  0  0
   -1.1712    3.4083   -1.2473 C   0  0  0  0  0  0  0  0  0  0  0  0
    1.4821   -0.7782   -0.8331 C   0  0  0  0  0  0  0  0  0  0  0  0
    2.0273   -0.2806    1.4279 C   0  0  0  0  0  0  0  0  0  0  0  0
    2.8149   -0.5675   -1.1688 C   0  0  0  0  0  0  0  0  0  0  0  0
    3.6917   -0.2170   -0.1547 C   0  0  0  0  0  0  0  0  0  0  0  0
    5.8672    0.3536    0.6179 C   0  0  0  0  0  0  0  0  0  0  0  0
    7.2796    0.5230    0.0922 C   0  0  0  0  0  0  0  0  0  0  0  0
    9.0326   -0.6038   -0.9941 C   0  0  0  0  0  0  0  0  0  0  0  0
   -4.3584   -1.6061    1.2230 H   0  0  0  0  0  0  0  0  0  0  0  0
   -2.8981   -3.5548   -0.4097 H   0  0  0  0  0  0  0  0  0  0  0  0
   -4.4923   -3.6601    0.3540 H   0  0  0  0  0  0  0  0  0  0  0  0
   -5.2174   -3.6554   -1.8807 H   0  0  0  0  0  0  0  0  0  0  0  0
   -3.7820   -2.7672   -2.4265 H   0  0  0  0  0  0  0  0  0  0  0  0
   -6.1901   -1.6505   -0.9137 H   0  0  0  0  0  0  0  0  0  0  0  0
   -5.4862   -1.0588   -2.4431 H   0  0  0  0  0  0  0  0  0  0  0  0
   -5.5054    0.2892    0.7010 H   0  0  0  0  0  0  0  0  0  0  0  0
   -5.5072    0.9647   -0.9213 H   0  0  0  0  0  0  0  0  0  0  0  0
   -3.9358    2.0129    2.3142 H   0  0  0  0  0  0  0  0  0  0  0  0
   -1.8484    3.6599    1.6948 H   0  0  0  0  0  0  0  0  0  0  0  0
   -1.6570    3.6928   -2.1861 H   0  0  0  0  0  0  0  0  0  0  0  0
   -0.7031    4.2987   -0.8157 H   0  0  0  0  0  0  0  0  0  0  0  0
    0.7852   -1.0523   -1.6209 H   0  0  0  0  0  0  0  0  0  0  0  0
    1.7898   -0.1475    2.4792 H   0  0  0  0  0  0  0  0  0  0  0  0
    3.1505   -0.6754   -2.1945 H   0  0  0  0  0  0  0  0  0  0  0  0
    0.4739    2.8956   -2.1586 H   0  0  0  0  0  0  0  0  0  0  0  0
    5.8598   -0.4460    1.3691 H   0  0  0  0  0  0  0  0  0  0  0  0
    5.5347    1.2951    1.0709 H   0  0  0  0  0  0  0  0  0  0  0  0
    7.2935    1.2905   -0.6905 H   0  0  0  0  0  0  0  0  0  0  0  0
    7.9487    0.8224    0.9063 H   0  0  0  0  0  0  0  0  0  0  0  0
    9.3190   -1.5767   -1.4024 H   0  0  0  0  0  0  0  0  0  0  0  0
    9.7431   -0.3328   -0.2071 H   0  0  0  0  0  0  0  0  0  0  0  0
    9.0628    0.1354   -1.8004 H   0  0  0  0  0  0  0  0  0  0  0  0
  1  8  1  0  0  0  0
  1 15  1  0  0  0  0
  2 16  1  0  0  0  0
  2 19  1  0  0  0  0
  3 22  1  0  0  0  0
  3 46  1  0  0  0  0
  4 26  1  0  0  0  0
  4 27  1  0  0  0  0
  5 28  1  0  0  0  0
  5 29  1  0  0  0  0
  6 10  1  0  0  0  0
  6 13  1  0  0  0  0
  6 14  1  0  0  0  0
  7 15  2  0  0  0  0
  7 18  1  0  0  0  0
  8 18  2  0  0  0  0
  9 24  1  0  0  0  0
  9 26  2  0  0  0  0
 10 11  1  0  0  0  0
 10 15  1  0  0  0  0
 10 30  1  0  0  0  0
 11 12  1  0  0  0  0
 11 31  1  0  0  0  0
 11 32  1  0  0  0  0
 12 13  1  0  0  0  0
 12 33  1  0  0  0  0
 12 34  1  0  0  0  0
 13 35  1  0  0  0  0
 13 36  1  0  0  0  0
 14 16  1  0  0  0  0
 14 37  1  0  0  0  0
 14 38  1  0  0  0  0
 16 17  2  0  0  0  0
 17 20  1  0  0  0  0
 17 39  1  0  0  0  0
 18 21  1  0  0  0  0
 19 20  2  0  0  0  0
 19 22  1  0  0  0  0
 20 40  1  0  0  0  0
 21 23  1  0  0  0  0
 21 24  2  0  0  0  0
 22 41  1  0  0  0  0
 22 42  1  0  0  0  0
 23 25  2  0  0  0  0
 23 43  1  0  0  0  0
 24 44  1  0  0  0  0
 25 26  1  0  0  0  0
 25 45  1  0  0  0  0
 27 28  1  0  0  0  0
 27 47  1  0  0  0  0
 27 48  1  0  0  0  0
 28 49  1  0  0  0  0
 28 50  1  0  0  0  0
 29 51  1  0  0  0  0
 29 52  1  0  0  0  0
 29 53  1  0  0  0  0
M  END
> <PUBCHEM_COMPOUND_CID>
45783553

> <PUBCHEM_CONFORMER_RMSD>
1

> <PUBCHEM_CONFORMER_DIVERSEORDER>
1
58
48
13
66
38
21
10
23
31
49
43
60
51
55
26
68
37
16
5
61
41
2
39
54
18
9
50
22
30
12
35
65
19
34
42
44
45
15
8
52
7
20
32
46
53
29
17
57
67
63
11
56
25
36
62
14
47
64
33
24
4
40
6
27
59
3
28

> <PUBCHEM_MMFF94_PARTIAL_CHARGES>
33
1 -0.02
10 0.45
13 0.27
14 0.45
15 0.3
16 -0.04
17 -0.15
18 0.46
19 -0.04
2 -0.28
20 -0.15
21 0.05
22 0.46
23 -0.15
24 0.16
25 -0.15
26 0.39
27 0.28
28 0.28
29 0.28
3 -0.68
39 0.15
4 -0.36
40 0.15
43 0.15
44 0.15
45 0.15
46 0.4
5 -0.56
6 -0.81
7 -0.57
8 -0.41
9 -0.62

> <PUBCHEM_EFFECTIVE_ROTOR_COUNT>
10

> <PUBCHEM_PHARMACOPHORE_FEATURES>
10
1 2 acceptor
1 3 acceptor
1 3 donor
1 5 acceptor
1 6 cation
3 7 8 18 cation
5 1 7 8 15 18 rings
5 2 16 17 19 20 rings
5 6 10 11 12 13 rings
6 9 21 23 24 25 26 rings

> <PUBCHEM_HEAVY_ATOM_COUNT>
29

> <PUBCHEM_ATOM_DEF_STEREO_COUNT>
1

> <PUBCHEM_ATOM_UDEF_STEREO_COUNT>
0

> <PUBCHEM_BOND_DEF_STEREO_COUNT>
0

> <PUBCHEM_BOND_UDEF_STEREO_COUNT>
0

> <PUBCHEM_ISOTOPIC_ATOM_COUNT>
0

> <PUBCHEM_COMPONENT_COUNT>
1

> <PUBCHEM_CACTVS_TAUTO_COUNT>
1

> <PUBCHEM_CONFORMER_ID>
02BA9A0100000001

> <PUBCHEM_MMFF94_ENERGY>
47.6729

> <PUBCHEM_FEATURE_SELFOVERLAP>
50.748

> <PUBCHEM_SHAPE_FINGERPRINT>
10087517 78 18334012783350314668
10165383 225 17917155988431857105
10454371 7 18410859854602950900
10670039 82 18335699434260753834
10871710 139 18114737123952407917
11007060 377 14563390582887993272
11101153 10 18267025140597213964
11315181 36 17749113326801324202
11477941 20 18341321275541874020
11578080 2 17987531307571395942
12156800 1 15870760386822213869
13782708 43 18060420235959672758
13947920 75 18334010588168020850
14910302 57 18059289860185139871
15183329 4 18187644679333525810
15461852 350 18273221911401437350
15876981 60 18335424603355942109
17492 54 18044070421035136093
17686467 74 18266454498604798544
17980427 23 18113628893197773060
19489759 90 18408604773043595154
20771845 65 17415558985883834763
20775438 99 16828091159766137391
21236236 1 18409167697343185552
21927370 108 18188502371053625387
23402539 116 18335699472441056503
23557571 272 18273212019596109379
4169191 19 17095818710939645934
469060 322 18115610204951377281
531348 171 18342459184319752530
563151 97 18114178597509457074
57527585 103 17605584178317753907
68570916 9 10015570715589463786
7226269 152 17603301553085668620
7471813 234 18192991741111277527

> <PUBCHEM_SHAPE_MULTIPOLES>
547.54
16.99
3.31
1.59
46.54
1.97
0.25
-5.5
-5
-6.59
-1.03
-0.72
0.01
-0.68

> <PUBCHEM_SHAPE_SELFOVERLAP>
1170.069

> <PUBCHEM_SHAPE_VOLUME>
306.6

> <PUBCHEM_COORDINATE_TYPE>
2
5
10

$$$$
