45783546
  -OEChem-12032416263D

 53 56  0     1  0  0  0  0  0999 V2000
   -2.2014   -1.5383    2.0321 O   0  0  0  0  0  0  0  0  0  0  0  0
    4.8456   -0.2422   -0.4544 O   0  0  0  0  0  0  0  0  0  0  0  0
    7.4913   -1.0712   -0.8387 O   0  0  0  0  0  0  0  0  0  0  0  0
   -4.2981   -0.7334   -0.8767 N   0  0  1  0  0  0  0  0  0  0  0  0
   -1.4596   -1.1279   -0.0411 N   0  0  0  0  0  0  0  0  0  0  0  0
   -0.8147   -1.3734    2.1401 N   0  0  0  0  0  0  0  0  0  0  0  0
    3.2324   -0.6944    1.1511 N   0  0  0  0  0  0  0  0  0  0  0  0
    1.0039    4.4994    0.3477 N   0  0  0  0  0  0  0  0  0  0  0  0
   -3.9568   -1.5102    0.3318 C   0  0  1  0  0  0  0  0  0  0  0  0
   -4.3533   -2.9585   -0.0092 C   0  0  0  0  0  0  0  0  0  0  0  0
   -4.9628   -2.8865   -1.4021 C   0  0  0  0  0  0  0  0  0  0  0  0
   -5.4021   -1.4415   -1.5251 C   0  0  0  0  0  0  0  0  0  0  0  0
   -4.6307    0.6564   -0.5913 C   0  0  0  0  0  0  0  0  0  0  0  0
   -2.4979   -1.3784    0.7157 C   0  0  0  0  0  0  0  0  0  0  0  0
   -3.3985    1.4970   -0.3860 C   0  0  0  0  0  0  0  0  0  0  0  0
   -3.2116    2.1785    0.8167 C   0  0  0  0  0  0  0  0  0  0  0  0
   -2.4439    1.5941   -1.3984 C   0  0  0  0  0  0  0  0  0  0  0  0
   -0.4500   -1.1346    0.8768 C   0  0  0  0  0  0  0  0  0  0  0  0
   -2.0700    2.9571    1.0068 C   0  0  0  0  0  0  0  0  0  0  0  0
   -1.3023    2.3727   -1.2081 C   0  0  0  0  0  0  0  0  0  0  0  0
    0.9137   -0.9004    0.4985 C   0  0  0  0  0  0  0  0  0  0  0  0
   -1.1152    3.0540   -0.0054 C   0  0  0  0  0  0  0  0  0  0  0  0
    1.2572   -0.6565   -0.8266 C   0  0  0  0  0  0  0  0  0  0  0  0
    1.9294   -0.9087    1.4408 C   0  0  0  0  0  0  0  0  0  0  0  0
    2.5874   -0.4317   -1.1640 C   0  0  0  0  0  0  0  0  0  0  0  0
    0.0541    3.8517    0.1894 C   0  0  0  0  0  0  0  0  0  0  0  0
    3.5282   -0.4609   -0.1473 C   0  0  0  0  0  0  0  0  0  0  0  0
    5.7699   -0.2833    0.6266 C   0  0  0  0  0  0  0  0  0  0  0  0
    7.1685   -0.0442    0.0912 C   0  0  0  0  0  0  0  0  0  0  0  0
    8.7870   -0.8847   -1.3910 C   0  0  0  0  0  0  0  0  0  0  0  0
   -4.5702   -1.1905    1.1860 H   0  0  0  0  0  0  0  0  0  0  0  0
   -3.5153   -3.6636    0.0128 H   0  0  0  0  0  0  0  0  0  0  0  0
   -5.1086   -3.3113    0.7036 H   0  0  0  0  0  0  0  0  0  0  0  0
   -5.7915   -3.5894   -1.5279 H   0  0  0  0  0  0  0  0  0  0  0  0
   -4.1999   -3.1200   -2.1552 H   0  0  0  0  0  0  0  0  0  0  0  0
   -6.3515   -1.2862   -0.9970 H   0  0  0  0  0  0  0  0  0  0  0  0
   -5.5237   -1.1459   -2.5717 H   0  0  0  0  0  0  0  0  0  0  0  0
   -5.3236    0.7431    0.2559 H   0  0  0  0  0  0  0  0  0  0  0  0
   -5.1585    1.0971   -1.4489 H   0  0  0  0  0  0  0  0  0  0  0  0
   -3.9460    2.1103    1.6147 H   0  0  0  0  0  0  0  0  0  0  0  0
   -2.5775    1.0725   -2.3425 H   0  0  0  0  0  0  0  0  0  0  0  0
   -1.9379    3.4816    1.9502 H   0  0  0  0  0  0  0  0  0  0  0  0
   -0.5668    2.4380   -2.0064 H   0  0  0  0  0  0  0  0  0  0  0  0
    0.5106   -0.6354   -1.6162 H   0  0  0  0  0  0  0  0  0  0  0  0
    1.7454   -1.0906    2.4955 H   0  0  0  0  0  0  0  0  0  0  0  0
    2.8720   -0.2397   -2.1927 H   0  0  0  0  0  0  0  0  0  0  0  0
    5.7333   -1.2727    1.0993 H   0  0  0  0  0  0  0  0  0  0  0  0
    5.5273    0.4919    1.3630 H   0  0  0  0  0  0  0  0  0  0  0  0
    7.2079    0.9240   -0.4215 H   0  0  0  0  0  0  0  0  0  0  0  0
    7.8907   -0.0486    0.9150 H   0  0  0  0  0  0  0  0  0  0  0  0
    8.8395    0.0629   -1.9357 H   0  0  0  0  0  0  0  0  0  0  0  0
    9.5470   -0.9102   -0.6041 H   0  0  0  0  0  0  0  0  0  0  0  0
    8.9832   -1.7007   -2.0917 H   0  0  0  0  0  0  0  0  0  0  0  0
  1  6  1  0  0  0  0
  1 14  1  0  0  0  0
  2 27  1  0  0  0  0
  2 28  1  0  0  0  0
  3 29  1  0  0  0  0
  3 30  1  0  0  0  0
  4  9  1  0  0  0  0
  4 12  1  0  0  0  0
  4 13  1  0  0  0  0
  5 14  2  0  0  0  0
  5 18  1  0  0  0  0
  6 18  2  0  0  0  0
  7 24  1  0  0  0  0
  7 27  2  0  0  0  0
  8 26  3  0  0  0  0
  9 10  1  0  0  0  0
  9 14  1  0  0  0  0
  9 31  1  0  0  0  0
 10 11  1  0  0  0  0
 10 32  1  0  0  0  0
 10 33  1  0  0  0  0
 11 12  1  0  0  0  0
 11 34  1  0  0  0  0
 11 35  1  0  0  0  0
 12 36  1  0  0  0  0
 12 37  1  0  0  0  0
 13 15  1  0  0  0  0
 13 38  1  0  0  0  0
 13 39  1  0  0  0  0
 15 16  2  0  0  0  0
 15 17  1  0  0  0  0
 16 19  1  0  0  0  0
 16 40  1  0  0  0  0
 17 20  2  0  0  0  0
 17 41  1  0  0  0  0
 18 21  1  0  0  0  0
 19 22  2  0  0  0  0
 19 42  1  0  0  0  0
 20 22  1  0  0  0  0
 20 43  1  0  0  0  0
 21 23  1  0  0  0  0
 21 24  2  0  0  0  0
 22 26  1  0  0  0  0
 23 25  2  0  0  0  0
 23 44  1  0  0  0  0
 24 45  1  0  0  0  0
 25 27  1  0  0  0  0
 25 46  1  0  0  0  0
 28 29  1  0  0  0  0
 28 47  1  0  0  0  0
 28 48  1  0  0  0  0
 29 49  1  0  0  0  0
 29 50  1  0  0  0  0
 30 51  1  0  0  0  0
 30 52  1  0  0  0  0
 30 53  1  0  0  0  0
M  END
> <PUBCHEM_COMPOUND_CID>
45783546

> <PUBCHEM_CONFORMER_RMSD>
1

> <PUBCHEM_CONFORMER_DIVERSEORDER>
1
15
34
71
103
82
55
6
72
26
29
61
80
95
65
86
93
21
42
73
31
49
107
77
43
30
16
13
106
22
98
47
40
81
101
68
33
53
38
50
9
35
105
44
36
37
8
84
24
100
64
45
28
83
78
41
104
2
25
70
5
10
57
52
54
18
99
59
56
23
39
11
19
96
58
48
62
3
89
14
102
91
27
66
94
90
32
85
60
76
51
75
12
92
79
74
46
63
4
97
67
87
20
69
17
88
7

> <PUBCHEM_MMFF94_PARTIAL_CHARGES>
35
1 -0.02
12 0.27
13 0.41
14 0.3
15 -0.14
16 -0.15
17 -0.15
18 0.46
19 -0.15
2 -0.36
20 -0.15
21 0.05
22 0.07
23 -0.15
24 0.16
25 -0.15
26 0.48
27 0.39
28 0.28
29 0.28
3 -0.56
30 0.28
4 -0.81
40 0.15
41 0.15
42 0.15
43 0.15
44 0.15
45 0.15
46 0.15
5 -0.57
6 -0.41
7 -0.62
8 -0.56
9 0.45

> <PUBCHEM_EFFECTIVE_ROTOR_COUNT>
9

> <PUBCHEM_PHARMACOPHORE_FEATURES>
8
1 3 acceptor
1 4 cation
1 8 acceptor
3 5 6 18 cation
5 1 5 6 14 18 rings
5 4 9 10 11 12 rings
6 15 16 17 19 20 22 rings
6 7 21 23 24 25 27 rings

> <PUBCHEM_HEAVY_ATOM_COUNT>
30

> <PUBCHEM_ATOM_DEF_STEREO_COUNT>
1

> <PUBCHEM_ATOM_UDEF_STEREO_COUNT>
0

> <PUBCHEM_BOND_DEF_STEREO_COUNT>
0

> <PUBCHEM_BOND_UDEF_STEREO_COUNT>
0

> <PUBCHEM_ISOTOPIC_ATOM_COUNT>
0

> <PUBCHEM_COMPONENT_COUNT>
1

> <PUBCHEM_CACTVS_TAUTO_COUNT>
1

> <PUBCHEM_CONFORMER_ID>
02BA99FA00000001

> <PUBCHEM_MMFF94_ENERGY>
63.0099

> <PUBCHEM_FEATURE_SELFOVERLAP>
40.598

> <PUBCHEM_SHAPE_FINGERPRINT>
10454371 7 18409454665941907100
10670039 82 18334012770823771042
1100329 8 18410571774272533129
11315181 36 17531253885260746926
12166972 35 17676769884824059655
12645989 146 18342460382989863102
12788726 201 18188201014092851571
13782708 43 17847063264528011558
14931854 50 18041548187719395927
15183329 4 17968096387996091818
15419008 47 18060131042963629192
15876981 60 18408610257437231877
16067689 302 17976260458551478539
17492 54 18042666348870468629
18336668 15 17967537869541708541
20642791 35 18262779858062642765
20691752 17 17459449209273058925
20721686 56 18337951320275102128
20775438 99 17113514469757615895
21236236 1 18334579019021899274
21344244 246 17835508707036814383
21927370 108 18337686286073933059
23557571 272 18343578534511796847
23559900 14 17750510874235130733
392239 28 18409450263184067680
4280585 95 18338222843379635761
5171179 24 18269267031552160465
531348 171 18270964518871263782
57527585 103 17387444335457887363
5969126 39 18343020003963477358
68570916 9 10375570605185097314

> <PUBCHEM_SHAPE_MULTIPOLES>
574.87
15.75
4.08
1.55
39.74
4.84
0.22
-10.4
-7.02
-4.94
0.16
-0.34
-0.54
-0.18

> <PUBCHEM_SHAPE_SELFOVERLAP>
1234.624

> <PUBCHEM_SHAPE_VOLUME>
317

> <PUBCHEM_COORDINATE_TYPE>
2
5
10

$$$$
