7144189
  -OEChem-12032416193D

 51 54  0     1  0  0  0  0  0999 V2000
   -1.4326   -1.6678    2.3278 S   0  0  0  0  0  0  0  0  0  0  0  0
    4.5975   -1.4565   -0.8744 F   0  0  0  0  0  0  0  0  0  0  0  0
    5.8248   -1.0766    0.8935 F   0  0  0  0  0  0  0  0  0  0  0  0
    6.6588   -0.6886   -1.0889 F   0  0  0  0  0  0  0  0  0  0  0  0
   -4.4234    2.1569    1.2173 O   0  0  0  0  0  0  0  0  0  0  0  0
   -3.7986   -3.0073    0.3891 O   0  0  0  0  0  0  0  0  0  0  0  0
    5.0426    0.7004   -0.2580 O   0  0  0  0  0  0  0  0  0  0  0  0
   -2.3325   -1.8140   -0.9613 N   0  0  0  0  0  0  0  0  0  0  0  0
   -2.7643    1.2339   -0.1544 N   0  0  0  0  0  0  0  0  0  0  0  0
   -3.3512    0.0037   -2.3256 C   0  0  1  0  0  0  0  0  0  0  0  0
   -1.0054    0.1882   -1.6153 C   0  0  2  0  0  0  0  0  0  0  0  0
   -1.9658    0.4387   -2.7767 C   0  0  0  0  0  0  0  0  0  0  0  0
   -3.3602   -1.4872   -1.9497 C   0  0  0  0  0  0  0  0  0  0  0  0
   -3.7823    0.8905   -1.1569 C   0  0  0  0  0  0  0  0  0  0  0  0
   -0.9873   -1.3180   -1.2800 C   0  0  0  0  0  0  0  0  0  0  0  0
   -1.3924    1.0014   -0.3769 C   0  0  0  0  0  0  0  0  0  0  0  0
   -0.4746    1.4711    0.5078 C   0  0  0  0  0  0  0  0  0  0  0  0
   -3.2396    1.9149    0.9805 C   0  0  0  0  0  0  0  0  0  0  0  0
   -2.6598   -2.6020    0.1418 C   0  0  0  0  0  0  0  0  0  0  0  0
   -0.9280    2.1751    1.6923 C   0  0  0  0  0  0  0  0  0  0  0  0
   -2.2197    2.3841    1.9455 C   0  0  0  0  0  0  0  0  0  0  0  0
    0.9770    1.2679    0.3069 C   0  0  0  0  0  0  0  0  0  0  0  0
   -1.5320   -2.9568    1.0775 C   0  0  0  0  0  0  0  0  0  0  0  0
    1.5916    0.1260    0.8110 C   0  0  0  0  0  0  0  0  0  0  0  0
    1.7175    2.2211   -0.3855 C   0  0  0  0  0  0  0  0  0  0  0  0
    2.9603   -0.0648    0.6208 C   0  0  0  0  0  0  0  0  0  0  0  0
    3.0861    2.0304   -0.5758 C   0  0  0  0  0  0  0  0  0  0  0  0
    3.7076    0.8873   -0.0726 C   0  0  0  0  0  0  0  0  0  0  0  0
   -0.0446   -2.3183    3.2902 C   0  0  0  0  0  0  0  0  0  0  0  0
    5.5304   -0.6336   -0.3500 C   0  0  0  0  0  0  0  0  0  0  0  0
   -4.0658    0.1419   -3.1464 H   0  0  0  0  0  0  0  0  0  0  0  0
   -0.0070    0.4718   -1.9667 H   0  0  0  0  0  0  0  0  0  0  0  0
   -1.9641    1.4983   -3.0613 H   0  0  0  0  0  0  0  0  0  0  0  0
   -1.6550   -0.1315   -3.6607 H   0  0  0  0  0  0  0  0  0  0  0  0
   -4.3521   -1.7812   -1.5904 H   0  0  0  0  0  0  0  0  0  0  0  0
   -3.1486   -2.0960   -2.8375 H   0  0  0  0  0  0  0  0  0  0  0  0
   -4.1328    1.8511   -1.5595 H   0  0  0  0  0  0  0  0  0  0  0  0
   -4.6459    0.4496   -0.6426 H   0  0  0  0  0  0  0  0  0  0  0  0
   -0.6422   -1.8888   -2.1514 H   0  0  0  0  0  0  0  0  0  0  0  0
   -0.2708   -1.5063   -0.4854 H   0  0  0  0  0  0  0  0  0  0  0  0
   -0.1815    2.5284    2.3976 H   0  0  0  0  0  0  0  0  0  0  0  0
   -2.5496    2.9055    2.8360 H   0  0  0  0  0  0  0  0  0  0  0  0
   -0.5870   -3.1386    0.5640 H   0  0  0  0  0  0  0  0  0  0  0  0
   -1.7983   -3.8999    1.5688 H   0  0  0  0  0  0  0  0  0  0  0  0
    1.0378   -0.6168    1.3636 H   0  0  0  0  0  0  0  0  0  0  0  0
    1.2464    3.1162   -0.7838 H   0  0  0  0  0  0  0  0  0  0  0  0
    3.4079   -0.9496    1.0629 H   0  0  0  0  0  0  0  0  0  0  0  0
    3.6630    2.7753   -1.1171 H   0  0  0  0  0  0  0  0  0  0  0  0
   -0.3456   -3.2341    3.8056 H   0  0  0  0  0  0  0  0  0  0  0  0
    0.2519   -1.5795    4.0393 H   0  0  0  0  0  0  0  0  0  0  0  0
    0.8141   -2.5312    2.6488 H   0  0  0  0  0  0  0  0  0  0  0  0
  1 23  1  0  0  0  0
  1 29  1  0  0  0  0
  2 30  1  0  0  0  0
  3 30  1  0  0  0  0
  4 30  1  0  0  0  0
  5 18  2  0  0  0  0
  6 19  2  0  0  0  0
  7 28  1  0  0  0  0
  7 30  1  0  0  0  0
  8 13  1  0  0  0  0
  8 15  1  0  0  0  0
  8 19  1  0  0  0  0
  9 14  1  0  0  0  0
  9 16  1  0  0  0  0
  9 18  1  0  0  0  0
 10 12  1  0  0  0  0
 10 13  1  0  0  0  0
 10 14  1  0  0  0  0
 10 31  1  0  0  0  0
 11 12  1  0  0  0  0
 11 15  1  0  0  0  0
 11 16  1  0  0  0  0
 11 32  1  0  0  0  0
 12 33  1  0  0  0  0
 12 34  1  0  0  0  0
 13 35  1  0  0  0  0
 13 36  1  0  0  0  0
 14 37  1  0  0  0  0
 14 38  1  0  0  0  0
 15 39  1  0  0  0  0
 15 40  1  0  0  0  0
 16 17  2  0  0  0  0
 17 20  1  0  0  0  0
 17 22  1  0  0  0  0
 18 21  1  0  0  0  0
 19 23  1  0  0  0  0
 20 21  2  0  0  0  0
 20 41  1  0  0  0  0
 21 42  1  0  0  0  0
 22 24  2  0  0  0  0
 22 25  1  0  0  0  0
 23 43  1  0  0  0  0
 23 44  1  0  0  0  0
 24 26  1  0  0  0  0
 24 45  1  0  0  0  0
 25 27  2  0  0  0  0
 25 46  1  0  0  0  0
 26 28  2  0  0  0  0
 26 47  1  0  0  0  0
 27 28  1  0  0  0  0
 27 48  1  0  0  0  0
 29 49  1  0  0  0  0
 29 50  1  0  0  0  0
 29 51  1  0  0  0  0
M  END
> <PUBCHEM_COMPOUND_CID>
7144189

> <PUBCHEM_CONFORMER_RMSD>
0.8

> <PUBCHEM_CONFORMER_DIVERSEORDER>
2
17
8
16
9
14
3
6
12
1
15
4
11
13
10
5
7

> <PUBCHEM_MMFF94_PARTIAL_CHARGES>
34
1 -0.46
11 0.14
13 0.3
14 0.3
15 0.3
16 -0.03
17 -0.03
18 0.62
19 0.57
2 -0.34
20 -0.15
21 -0.14
22 0.03
23 0.29
24 -0.15
25 -0.15
26 -0.15
27 -0.15
28 0.08
29 0.23
3 -0.34
30 1.3
4 -0.34
41 0.15
42 0.15
45 0.15
46 0.15
47 0.15
48 0.15
5 -0.57
6 -0.57
7 -0.36
8 -0.66
9 -0.47

> <PUBCHEM_EFFECTIVE_ROTOR_COUNT>
7

> <PUBCHEM_PHARMACOPHORE_FEATURES>
8
1 29 hydrophobe
1 5 acceptor
1 6 acceptor
1 7 acceptor
6 22 24 25 26 27 28 rings
6 8 10 11 12 13 15 rings
6 9 10 11 12 14 16 rings
6 9 16 17 18 20 21 rings

> <PUBCHEM_HEAVY_ATOM_COUNT>
30

> <PUBCHEM_ATOM_DEF_STEREO_COUNT>
2

> <PUBCHEM_ATOM_UDEF_STEREO_COUNT>
0

> <PUBCHEM_BOND_DEF_STEREO_COUNT>
0

> <PUBCHEM_BOND_UDEF_STEREO_COUNT>
0

> <PUBCHEM_ISOTOPIC_ATOM_COUNT>
0

> <PUBCHEM_COMPONENT_COUNT>
1

> <PUBCHEM_CACTVS_TAUTO_COUNT>
1

> <PUBCHEM_CONFORMER_ID>
006D02FD00000002

> <PUBCHEM_MMFF94_ENERGY>
90.8689

> <PUBCHEM_FEATURE_SELFOVERLAP>
42.162

> <PUBCHEM_SHAPE_FINGERPRINT>
11135926 11 18261393292322441086
12156800 1 17101205183401343011
12236239 1 18343304730094021544
12422481 6 16987465099069223887
12788726 201 17987507135569528201
14251740 79 18187643647634149939
14844126 61 17489297581705281468
15219462 58 17758983775184933477
20101258 96 17988650760690954680
20764821 26 18264217902949727290
22907989 373 11819542796922757909
23559900 14 17346302792369282728
23728640 28 17632294562308363077
3027735 51 17704072871750576102
3383291 50 18059850671255663991
35225 105 18046943526026754779
4058900 60 17973437712119789117
4073 2 18202283590130714466
460360 51 17202507540543446206
469060 322 16660656180061793499
484985 159 18411141346153025195
4921388 177 17967813885651532054
5104073 3 18272082821360248800
59755656 520 18334861576272437401
70251023 43 17625239185662355935
9981440 41 17417536804689070157

> <PUBCHEM_SHAPE_MULTIPOLES>
571.84
9.89
3.28
2.54
18.82
1.57
-0.38
1.69
3.34
-2.55
-1.84
-2.44
0.54
-0.63

> <PUBCHEM_SHAPE_SELFOVERLAP>
1227.667

> <PUBCHEM_SHAPE_VOLUME>
319.4

> <PUBCHEM_COORDINATE_TYPE>
2
5
10

$$$$
