7049388
  -OEChem-12032416203D

 59 60  0     1  0  0  0  0  0999 V2000
    2.4069    3.7383   -1.5854 S   0  0  0  0  0  0  0  0  0  0  0  0
    0.5558   -0.2354   -1.1760 O   0  0  0  0  0  0  0  0  0  0  0  0
    3.8792    0.8472   -0.7788 O   0  0  0  0  0  0  0  0  0  0  0  0
   -2.6677    0.3762    2.6155 O   0  0  0  0  0  0  0  0  0  0  0  0
    4.2099   -2.3457   -1.0389 O   0  0  0  0  0  0  0  0  0  0  0  0
    2.0208    1.1370    0.5702 N   0  0  0  0  0  0  0  0  0  0  0  0
   -1.1055    0.9144    0.9860 N   0  0  0  0  0  0  0  0  0  0  0  0
   -3.2997    0.5590    0.3889 N   0  0  0  0  0  0  0  0  0  0  0  0
    1.5335   -2.2635   -0.5982 N   0  0  0  0  0  0  0  0  0  0  0  0
    4.6198   -3.6281    0.8247 N   0  0  0  0  0  0  0  0  0  0  0  0
    0.0323    1.0198    1.8646 C   0  0  1  0  0  0  0  0  0  0  0  0
    1.7925   -0.2759    0.8348 C   0  0  1  0  0  0  0  0  0  0  0  0
    0.7858   -0.3078    1.9827 C   0  0  0  0  0  0  0  0  0  0  0  0
    1.0853    1.9782    1.3166 C   0  0  0  0  0  0  0  0  0  0  0  0
   -4.7015    0.2539    0.5710 C   0  0  0  0  0  0  0  0  0  0  0  0
   -4.9509   -1.2562    0.4972 C   0  0  0  0  0  0  0  0  0  0  0  0
   -5.5660    1.0099   -0.4436 C   0  0  0  0  0  0  0  0  0  0  0  0
   -4.8064   -1.8042   -0.9226 C   0  0  0  0  0  0  0  0  0  0  0  0
   -5.4206    0.4583   -1.8618 C   0  0  0  0  0  0  0  0  0  0  0  0
   -5.6844   -1.0436   -1.9117 C   0  0  0  0  0  0  0  0  0  0  0  0
    1.2363   -0.9144   -0.4023 C   0  0  0  0  0  0  0  0  0  0  0  0
    3.1103    1.5856   -0.1609 C   0  0  0  0  0  0  0  0  0  0  0  0
   -2.3856    0.5961    1.4384 C   0  0  0  0  0  0  0  0  0  0  0  0
    3.3122    3.0800   -0.1776 C   0  0  0  0  0  0  0  0  0  0  0  0
    2.3441   -3.0298    0.3448 C   0  0  0  0  0  0  0  0  0  0  0  0
    1.0567   -3.0064   -1.7578 C   0  0  0  0  0  0  0  0  0  0  0  0
    3.8021   -2.9346   -0.0414 C   0  0  0  0  0  0  0  0  0  0  0  0
    2.8047    5.4918   -1.3783 C   0  0  0  0  0  0  0  0  0  0  0  0
   -0.3275    1.3549    2.8435 H   0  0  0  0  0  0  0  0  0  0  0  0
    2.7577   -0.6973    1.1219 H   0  0  0  0  0  0  0  0  0  0  0  0
    0.1276   -1.1828    1.9642 H   0  0  0  0  0  0  0  0  0  0  0  0
    1.3345   -0.3189    2.9331 H   0  0  0  0  0  0  0  0  0  0  0  0
    1.6454    2.4334    2.1413 H   0  0  0  0  0  0  0  0  0  0  0  0
    0.6712    2.7682    0.6849 H   0  0  0  0  0  0  0  0  0  0  0  0
   -4.9790    0.5951    1.5762 H   0  0  0  0  0  0  0  0  0  0  0  0
   -4.2655   -1.7929    1.1641 H   0  0  0  0  0  0  0  0  0  0  0  0
   -5.9677   -1.4665    0.8531 H   0  0  0  0  0  0  0  0  0  0  0  0
   -6.6185    0.9335   -0.1421 H   0  0  0  0  0  0  0  0  0  0  0  0
   -5.3112    2.0766   -0.4409 H   0  0  0  0  0  0  0  0  0  0  0  0
   -0.9605    1.0199   -0.0136 H   0  0  0  0  0  0  0  0  0  0  0  0
   -3.7581   -1.7403   -1.2390 H   0  0  0  0  0  0  0  0  0  0  0  0
   -5.0760   -2.8664   -0.9344 H   0  0  0  0  0  0  0  0  0  0  0  0
   -6.1231    0.9742   -2.5266 H   0  0  0  0  0  0  0  0  0  0  0  0
   -4.4154    0.6675   -2.2462 H   0  0  0  0  0  0  0  0  0  0  0  0
   -5.5053   -1.4162   -2.9265 H   0  0  0  0  0  0  0  0  0  0  0  0
   -6.7401   -1.2354   -1.6833 H   0  0  0  0  0  0  0  0  0  0  0  0
   -2.9456    0.6844   -0.5542 H   0  0  0  0  0  0  0  0  0  0  0  0
    3.0010    3.5545    0.7548 H   0  0  0  0  0  0  0  0  0  0  0  0
    4.3825    3.2757   -0.3036 H   0  0  0  0  0  0  0  0  0  0  0  0
    2.0339   -4.0808    0.3074 H   0  0  0  0  0  0  0  0  0  0  0  0
    2.2025   -2.6919    1.3742 H   0  0  0  0  0  0  0  0  0  0  0  0
    0.3998   -3.8114   -1.4161 H   0  0  0  0  0  0  0  0  0  0  0  0
    0.4965   -2.3562   -2.4348 H   0  0  0  0  0  0  0  0  0  0  0  0
    1.9108   -3.4283   -2.2946 H   0  0  0  0  0  0  0  0  0  0  0  0
    2.4334    5.8544   -0.4163 H   0  0  0  0  0  0  0  0  0  0  0  0
    3.8852    5.6463   -1.4390 H   0  0  0  0  0  0  0  0  0  0  0  0
    2.3254    6.0663   -2.1753 H   0  0  0  0  0  0  0  0  0  0  0  0
    5.6233   -3.6631    0.6796 H   0  0  0  0  0  0  0  0  0  0  0  0
    4.2583   -4.1202    1.6356 H   0  0  0  0  0  0  0  0  0  0  0  0
  1 24  1  0  0  0  0
  1 28  1  0  0  0  0
  2 21  2  0  0  0  0
  3 22  2  0  0  0  0
  4 23  2  0  0  0  0
  5 27  2  0  0  0  0
  6 12  1  0  0  0  0
  6 14  1  0  0  0  0
  6 22  1  0  0  0  0
  7 11  1  0  0  0  0
  7 23  1  0  0  0  0
  7 40  1  0  0  0  0
  8 15  1  0  0  0  0
  8 23  1  0  0  0  0
  8 47  1  0  0  0  0
  9 21  1  0  0  0  0
  9 25  1  0  0  0  0
  9 26  1  0  0  0  0
 10 27  1  0  0  0  0
 10 58  1  0  0  0  0
 10 59  1  0  0  0  0
 11 13  1  0  0  0  0
 11 14  1  0  0  0  0
 11 29  1  0  0  0  0
 12 13  1  0  0  0  0
 12 21  1  0  0  0  0
 12 30  1  0  0  0  0
 13 31  1  0  0  0  0
 13 32  1  0  0  0  0
 14 33  1  0  0  0  0
 14 34  1  0  0  0  0
 15 16  1  0  0  0  0
 15 17  1  0  0  0  0
 15 35  1  0  0  0  0
 16 18  1  0  0  0  0
 16 36  1  0  0  0  0
 16 37  1  0  0  0  0
 17 19  1  0  0  0  0
 17 38  1  0  0  0  0
 17 39  1  0  0  0  0
 18 20  1  0  0  0  0
 18 41  1  0  0  0  0
 18 42  1  0  0  0  0
 19 20  1  0  0  0  0
 19 43  1  0  0  0  0
 19 44  1  0  0  0  0
 20 45  1  0  0  0  0
 20 46  1  0  0  0  0
 22 24  1  0  0  0  0
 24 48  1  0  0  0  0
 24 49  1  0  0  0  0
 25 27  1  0  0  0  0
 25 50  1  0  0  0  0
 25 51  1  0  0  0  0
 26 52  1  0  0  0  0
 26 53  1  0  0  0  0
 26 54  1  0  0  0  0
 28 55  1  0  0  0  0
 28 56  1  0  0  0  0
 28 57  1  0  0  0  0
M  END
> <PUBCHEM_COMPOUND_CID>
7049388

> <PUBCHEM_CONFORMER_RMSD>
1.2

> <PUBCHEM_CONFORMER_DIVERSEORDER>
1
16
4
20
30
3
25
15
31
10
12
14
28
27
23
11
6
22
33
29
9
24
34
2
19
26
17
32
13
18
7
8
21
5

> <PUBCHEM_MMFF94_PARTIAL_CHARGES>
26
1 -0.46
10 -0.8
11 0.3
12 0.36
14 0.3
15 0.3
2 -0.57
21 0.57
22 0.57
23 0.69
24 0.29
25 0.36
26 0.3
27 0.57
28 0.23
3 -0.57
4 -0.57
40 0.37
47 0.37
5 -0.57
58 0.37
59 0.37
6 -0.66
7 -0.73
8 -0.73
9 -0.66

> <PUBCHEM_EFFECTIVE_ROTOR_COUNT>
13.2

> <PUBCHEM_PHARMACOPHORE_FEATURES>
10
1 10 donor
1 2 acceptor
1 28 hydrophobe
1 3 acceptor
1 4 acceptor
1 5 acceptor
1 7 donor
1 8 donor
5 6 11 12 13 14 rings
6 15 16 17 18 19 20 rings

> <PUBCHEM_HEAVY_ATOM_COUNT>
28

> <PUBCHEM_ATOM_DEF_STEREO_COUNT>
2

> <PUBCHEM_ATOM_UDEF_STEREO_COUNT>
0

> <PUBCHEM_BOND_DEF_STEREO_COUNT>
0

> <PUBCHEM_BOND_UDEF_STEREO_COUNT>
0

> <PUBCHEM_ISOTOPIC_ATOM_COUNT>
0

> <PUBCHEM_COMPONENT_COUNT>
1

> <PUBCHEM_CACTVS_TAUTO_COUNT>
6

> <PUBCHEM_CONFORMER_ID>
006B90AC00000001

> <PUBCHEM_MMFF94_ENERGY>
56.21

> <PUBCHEM_FEATURE_SELFOVERLAP>
50.797

> <PUBCHEM_SHAPE_FINGERPRINT>
10074138 170 15829107832433973539
10759866 29 18270678791749822887
10928967 22 17059486482855240047
12293681 4 17541652821091015404
13083527 12 18199750233203112418
13899415 180 18189896405304370904
15537594 2 17560808788127998179
15842332 3 17773619160066843105
16989378 47 17987818331814853966
17138139 8 17487613267530740975
21033648 144 17679871680415571373
21033648 29 14563628047113879549
21033650 10 16878225247843630685
21054139 6 18058727038753403785
21304303 282 17474658933729460720
235170 7 18262226816340148181
23559900 14 18335417950593836483
27425 322 18040990753379370155
2838139 119 17751917171014275773
3004659 81 18200303326338789235
312425 83 18261382348423770925
376196 1 17751642293065017104
404807 78 17759791942797984663
4098825 35 18335144168367789553
4280585 95 18193550069516773738
439807 62 18272080626948906679
44802255 64 17320450173208227788
46194498 28 18260823839382079141
513532 50 17458337550670706759
57527293 21 17694511339022406178
6669772 16 17557972116452460592

> <PUBCHEM_SHAPE_MULTIPOLES>
531.69
11.83
5.19
2.05
18.88
2.57
-0.36
-1.21
4.76
-11.1
2.76
1.2
0.4
-1.57

> <PUBCHEM_SHAPE_SELFOVERLAP>
1063.034

> <PUBCHEM_SHAPE_VOLUME>
315.7

> <PUBCHEM_COORDINATE_TYPE>
2
5
10

$$$$
