11886119
  -OEChem-12032416413D

 55 60  0     1  0  0  0  0  0999 V2000
    1.7833    2.7476    1.1867 O   0  0  0  0  0  0  0  0  0  0  0  0
    1.8196   -0.2956    1.9798 O   0  0  0  0  0  0  0  0  0  0  0  0
   -2.4849    2.2730    0.8618 O   0  0  0  0  0  0  0  0  0  0  0  0
    3.9293    1.0915   -0.6591 N   0  0  0  0  0  0  0  0  0  0  0  0
   -1.0765    0.4732    1.2121 N   0  0  0  0  0  0  0  0  0  0  0  0
    3.6756    2.1353   -1.4548 N   0  0  0  0  0  0  0  0  0  0  0  0
    4.9671    0.6516   -2.5039 N   0  0  0  0  0  0  0  0  0  0  0  0
    4.3148    1.8610   -2.5854 N   0  0  0  0  0  0  0  0  0  0  0  0
   -3.1309    0.0992    0.2550 N   0  0  0  0  0  0  0  0  0  0  0  0
    1.9966    0.4153    0.7410 C   0  0  1  0  0  0  0  0  0  0  0  0
    1.0424    1.5934    0.7602 C   0  0  1  0  0  0  0  0  0  0  0  0
    3.3786    1.0393    0.6977 C   0  0  2  0  0  0  0  0  0  0  0  0
    0.0091    1.2206    1.7994 C   0  0  2  0  0  0  0  0  0  0  0  0
    3.1628    2.3959    1.3595 C   0  0  0  0  0  0  0  0  0  0  0  0
    0.8111    0.3620    2.7597 C   0  0  0  0  0  0  0  0  0  0  0  0
    4.7140    0.1930   -1.2997 C   0  0  0  0  0  0  0  0  0  0  0  0
   -2.2679    1.0666    0.7775 C   0  0  0  0  0  0  0  0  0  0  0  0
    5.1755   -1.0470   -0.7300 C   0  0  0  0  0  0  0  0  0  0  0  0
    6.3845   -1.0887   -0.0333 C   0  0  0  0  0  0  0  0  0  0  0  0
    4.4159   -2.2093   -0.8737 C   0  0  0  0  0  0  0  0  0  0  0  0
   -4.4245    0.2902   -0.2841 C   0  0  0  0  0  0  0  0  0  0  0  0
   -5.3992   -0.7071   -0.2023 C   0  0  0  0  0  0  0  0  0  0  0  0
    6.8326   -2.2892    0.5178 C   0  0  0  0  0  0  0  0  0  0  0  0
    4.8640   -3.4097   -0.3224 C   0  0  0  0  0  0  0  0  0  0  0  0
   -4.6781    1.5102   -0.8968 C   0  0  0  0  0  0  0  0  0  0  0  0
   -6.6758   -0.4592   -0.7605 C   0  0  0  0  0  0  0  0  0  0  0  0
    6.0724   -3.4496    0.3734 C   0  0  0  0  0  0  0  0  0  0  0  0
   -5.1482   -1.9429    0.4160 C   0  0  0  0  0  0  0  0  0  0  0  0
   -5.9337    1.7541   -1.4454 C   0  0  0  0  0  0  0  0  0  0  0  0
   -6.9271    0.7766   -1.3785 C   0  0  0  0  0  0  0  0  0  0  0  0
   -7.6639   -1.4543   -0.6841 C   0  0  0  0  0  0  0  0  0  0  0  0
   -6.1416   -2.9202    0.4827 C   0  0  0  0  0  0  0  0  0  0  0  0
   -7.3970   -2.6765   -0.0663 C   0  0  0  0  0  0  0  0  0  0  0  0
    1.7878   -0.2888   -0.0707 H   0  0  0  0  0  0  0  0  0  0  0  0
    0.6265    1.8196   -0.2270 H   0  0  0  0  0  0  0  0  0  0  0  0
    4.1074    0.4766    1.2923 H   0  0  0  0  0  0  0  0  0  0  0  0
   -0.4047    2.0923    2.3176 H   0  0  0  0  0  0  0  0  0  0  0  0
    3.3380    2.3239    2.4390 H   0  0  0  0  0  0  0  0  0  0  0  0
    3.7980    3.1983    0.9727 H   0  0  0  0  0  0  0  0  0  0  0  0
    1.3258    0.9805    3.5032 H   0  0  0  0  0  0  0  0  0  0  0  0
    0.2139   -0.3875    3.2879 H   0  0  0  0  0  0  0  0  0  0  0  0
   -0.9425   -0.5189    1.0408 H   0  0  0  0  0  0  0  0  0  0  0  0
   -2.8544   -0.8573    0.4473 H   0  0  0  0  0  0  0  0  0  0  0  0
    6.9888   -0.1928    0.0884 H   0  0  0  0  0  0  0  0  0  0  0  0
    3.4715   -2.1948   -1.4128 H   0  0  0  0  0  0  0  0  0  0  0  0
    7.7734   -2.3204    1.0596 H   0  0  0  0  0  0  0  0  0  0  0  0
    4.2719   -4.3133   -0.4345 H   0  0  0  0  0  0  0  0  0  0  0  0
   -3.9249    2.2824   -1.0101 H   0  0  0  0  0  0  0  0  0  0  0  0
    6.4212   -4.3843    0.8027 H   0  0  0  0  0  0  0  0  0  0  0  0
   -4.1944   -2.1899    0.8719 H   0  0  0  0  0  0  0  0  0  0  0  0
   -6.1385    2.7018   -1.9351 H   0  0  0  0  0  0  0  0  0  0  0  0
   -7.9006    0.9881   -1.8162 H   0  0  0  0  0  0  0  0  0  0  0  0
   -8.6524   -1.2854   -1.1061 H   0  0  0  0  0  0  0  0  0  0  0  0
   -5.9360   -3.8713    0.9657 H   0  0  0  0  0  0  0  0  0  0  0  0
   -8.1701   -3.4376   -0.0134 H   0  0  0  0  0  0  0  0  0  0  0  0
  1 11  1  0  0  0  0
  1 14  1  0  0  0  0
  2 10  1  0  0  0  0
  2 15  1  0  0  0  0
  3 17  2  0  0  0  0
  4  6  1  0  0  0  0
  4 12  1  0  0  0  0
  4 16  1  0  0  0  0
  5 13  1  0  0  0  0
  5 17  1  0  0  0  0
  5 42  1  0  0  0  0
  6  8  2  0  0  0  0
  7  8  1  0  0  0  0
  7 16  2  0  0  0  0
  9 17  1  0  0  0  0
  9 21  1  0  0  0  0
  9 43  1  0  0  0  0
 10 11  1  0  0  0  0
 10 12  1  0  0  0  0
 10 34  1  0  0  0  0
 11 13  1  0  0  0  0
 11 35  1  0  0  0  0
 12 14  1  0  0  0  0
 12 36  1  0  0  0  0
 13 15  1  0  0  0  0
 13 37  1  0  0  0  0
 14 38  1  0  0  0  0
 14 39  1  0  0  0  0
 15 40  1  0  0  0  0
 15 41  1  0  0  0  0
 16 18  1  0  0  0  0
 18 19  2  0  0  0  0
 18 20  1  0  0  0  0
 19 23  1  0  0  0  0
 19 44  1  0  0  0  0
 20 24  2  0  0  0  0
 20 45  1  0  0  0  0
 21 22  1  0  0  0  0
 21 25  2  0  0  0  0
 22 26  1  0  0  0  0
 22 28  2  0  0  0  0
 23 27  2  0  0  0  0
 23 46  1  0  0  0  0
 24 27  1  0  0  0  0
 24 47  1  0  0  0  0
 25 29  1  0  0  0  0
 25 48  1  0  0  0  0
 26 30  1  0  0  0  0
 26 31  2  0  0  0  0
 27 49  1  0  0  0  0
 28 32  1  0  0  0  0
 28 50  1  0  0  0  0
 29 30  2  0  0  0  0
 29 51  1  0  0  0  0
 30 52  1  0  0  0  0
 31 33  1  0  0  0  0
 31 53  1  0  0  0  0
 32 33  2  0  0  0  0
 32 54  1  0  0  0  0
 33 55  1  0  0  0  0
M  END
> <PUBCHEM_COMPOUND_CID>
11886119

> <PUBCHEM_CONFORMER_RMSD>
1

> <PUBCHEM_CONFORMER_DIVERSEORDER>
1
76
96
74
112
37
127
98
104
97
122
81
48
71
10
23
103
124
108
100
99
47
130
107
91
30
85
110
79
44
29
53
15
129
46
39
115
20
49
101
92
126
33
51
87
64
128
69
62
24
38
123
116
55
36
18
52
105
86
94
132
50
19
113
54
61
80
12
73
90
58
43
5
40
22
63
78
59
114
28
11
70
8
60
45
89
35
109
120
121
31
42
88
106
84
9
56
95
65
72
131
25
57
111
17
67
7
75
27
119
125
117
32
68
3
16
93
82
26
21
41
4
6
83
118
66
102
77
34
2
13
14

> <PUBCHEM_MMFF94_PARTIAL_CHARGES>
44
1 -0.56
10 0.28
11 0.28
12 0.26
13 0.3
14 0.28
15 0.28
16 0.13
17 0.69
18 0.05
19 -0.15
2 -0.56
20 -0.15
21 0.12
23 -0.15
24 -0.15
25 -0.15
27 -0.15
28 -0.15
29 -0.15
3 -0.57
30 -0.15
31 -0.15
32 -0.15
33 -0.15
4 0.31
42 0.37
43 0.37
44 0.15
45 0.15
46 0.15
47 0.15
48 0.15
49 0.15
5 -0.73
50 0.15
51 0.15
52 0.15
53 0.15
54 0.15
55 0.15
6 -0.42
7 -0.34
9 -0.55

> <PUBCHEM_EFFECTIVE_ROTOR_COUNT>
7.2

> <PUBCHEM_PHARMACOPHORE_FEATURES>
12
1 1 acceptor
1 2 acceptor
1 3 acceptor
1 5 donor
1 9 donor
3 4 7 16 cation
5 1 10 11 12 14 rings
5 2 10 11 13 15 rings
5 4 6 7 8 16 rings
6 18 19 20 23 24 27 rings
6 21 22 25 26 29 30 rings
6 22 26 28 31 32 33 rings

> <PUBCHEM_HEAVY_ATOM_COUNT>
33

> <PUBCHEM_ATOM_DEF_STEREO_COUNT>
4

> <PUBCHEM_ATOM_UDEF_STEREO_COUNT>
0

> <PUBCHEM_BOND_DEF_STEREO_COUNT>
0

> <PUBCHEM_BOND_UDEF_STEREO_COUNT>
0

> <PUBCHEM_ISOTOPIC_ATOM_COUNT>
0

> <PUBCHEM_COMPONENT_COUNT>
1

> <PUBCHEM_CACTVS_TAUTO_COUNT>
3

> <PUBCHEM_CONFORMER_ID>
00B55E2700000001

> <PUBCHEM_MMFF94_ENERGY>
98.2098

> <PUBCHEM_FEATURE_SELFOVERLAP>
61.668

> <PUBCHEM_SHAPE_FINGERPRINT>
10169797 241 17418092148292404520
10693767 8 18187641346112123138
10883706 17 18409450310312916714
11828532 37 16516266113914962762
13782708 43 17775566464163680621
14118638 360 17418380224465726760
14150023 79 17986104331096369192
14347332 77 18272935986026718321
15082195 135 18042413589154153068
15183329 4 18342746190881465896
15352257 5 18413389852296357223
15510800 12 17632305540545666638
15530120 55 17968385670490144015
17134984 74 18342744048441884694
2026 5 18272365348340962711
20567600 247 18272651233773689362
21033650 10 17604145909993104201
21315764 119 18260266313597656861
21362857 166 18261104235979503391
21585481 104 17748826294152777117
2303208 19 18272370932071883273
23559900 14 18411972560338215601
2748736 6 11674871221777731871
2838139 119 15502366833775791837
3004659 81 18334569118705655034
3383291 50 17132114650018180423
4169191 19 7853575725636620047
4258327 124 12396302582646357795
437795 139 18200875067705221904
439807 62 18411984663445532607
4408954 87 17631712908670290574
44880168 125 18059847424977708759
504579 68 17240194439941965343
513202 73 16630257969857805457
513532 50 18040710398962466536
5719381 36 17917137416746207063
57527295 17 18269576991443126904
59682541 52 18334579040285719820
6608658 132 16443056180716177109
6697151 62 17631716236773585369

> <PUBCHEM_SHAPE_MULTIPOLES>
631.63
23.29
3.62
1.96
21.18
2.18
-0.1
17.53
-9.05
-2.37
0.25
-1.86
-1.21
0.49

> <PUBCHEM_SHAPE_SELFOVERLAP>
1407.262

> <PUBCHEM_SHAPE_VOLUME>
336.9

> <PUBCHEM_COORDINATE_TYPE>
2
5
10

$$$$
