71693882
  -OEChem-12032416273D

 53 55  0     1  0  0  0  0  0999 V2000
    0.8917    3.7673   -1.6530 O   0  0  0  0  0  0  0  0  0  0  0  0
    3.5228    3.1918   -1.1184 O   0  0  0  0  0  0  0  0  0  0  0  0
    0.0173   -0.7531   -1.3577 O   0  0  0  0  0  0  0  0  0  0  0  0
    4.4858   -3.7268    0.2895 O   0  0  0  0  0  0  0  0  0  0  0  0
   -4.8482    0.5381    1.7502 O   0  0  0  0  0  0  0  0  0  0  0  0
   -6.1617   -1.1247   -0.0494 O   0  0  0  0  0  0  0  0  0  0  0  0
   -0.2541    1.2568   -0.2323 N   0  0  0  0  0  0  0  0  0  0  0  0
    1.9631    1.3122    0.8706 C   0  0  2  0  0  0  0  0  0  0  0  0
    1.1094    1.7065   -0.3558 C   0  0  2  0  0  0  0  0  0  0  0  0
    1.2070    3.2311   -0.3819 C   0  0  1  0  0  0  0  0  0  0  0  0
    2.9412    2.4929    1.1017 C   0  0  0  0  0  0  0  0  0  0  0  0
    2.6649    3.4905   -0.0214 C   0  0  1  0  0  0  0  0  0  0  0  0
    2.6369   -0.0348    0.7149 C   0  0  0  0  0  0  0  0  0  0  0  0
    2.3673   -1.0585    1.6231 C   0  0  0  0  0  0  0  0  0  0  0  0
    3.5275   -0.2517   -0.3364 C   0  0  0  0  0  0  0  0  0  0  0  0
   -0.6919    0.0459   -0.7518 C   0  0  0  0  0  0  0  0  0  0  0  0
    2.9885   -2.2992    1.4800 C   0  0  0  0  0  0  0  0  0  0  0  0
    4.1490   -1.4924   -0.4794 C   0  0  0  0  0  0  0  0  0  0  0  0
   -2.1334   -0.2604   -0.5638 C   0  0  0  0  0  0  0  0  0  0  0  0
    3.8794   -2.5162    0.4288 C   0  0  0  0  0  0  0  0  0  0  0  0
   -2.8276    0.2859    0.5157 C   0  0  0  0  0  0  0  0  0  0  0  0
   -2.7925   -1.0948   -1.4666 C   0  0  0  0  0  0  0  0  0  0  0  0
   -4.1811   -0.0020    0.6923 C   0  0  0  0  0  0  0  0  0  0  0  0
   -4.1458   -1.3829   -1.2898 C   0  0  0  0  0  0  0  0  0  0  0  0
   -4.8401   -0.8364   -0.2104 C   0  0  0  0  0  0  0  0  0  0  0  0
    5.3853   -3.8797   -0.8076 C   0  0  0  0  0  0  0  0  0  0  0  0
   -4.1010    1.3804    2.6258 C   0  0  0  0  0  0  0  0  0  0  0  0
   -6.7596   -1.9858   -1.0166 C   0  0  0  0  0  0  0  0  0  0  0  0
    1.3106    1.2666    1.7552 H   0  0  0  0  0  0  0  0  0  0  0  0
    1.5074    1.3012   -1.2942 H   0  0  0  0  0  0  0  0  0  0  0  0
    0.5402    3.6804    0.3650 H   0  0  0  0  0  0  0  0  0  0  0  0
    2.6978    2.9590    2.0648 H   0  0  0  0  0  0  0  0  0  0  0  0
    3.9906    2.1818    1.1404 H   0  0  0  0  0  0  0  0  0  0  0  0
    2.8422    4.5294    0.2722 H   0  0  0  0  0  0  0  0  0  0  0  0
   -0.9027    1.8869    0.2263 H   0  0  0  0  0  0  0  0  0  0  0  0
    1.0670    4.7231   -1.6183 H   0  0  0  0  0  0  0  0  0  0  0  0
    4.4375    3.3361   -0.8216 H   0  0  0  0  0  0  0  0  0  0  0  0
    1.6751   -0.9059    2.4467 H   0  0  0  0  0  0  0  0  0  0  0  0
    3.7555    0.5308   -1.0534 H   0  0  0  0  0  0  0  0  0  0  0  0
    2.7744   -3.0931    2.1903 H   0  0  0  0  0  0  0  0  0  0  0  0
    4.8301   -1.5924   -1.3176 H   0  0  0  0  0  0  0  0  0  0  0  0
   -2.2797    0.8912    1.2261 H   0  0  0  0  0  0  0  0  0  0  0  0
   -2.2691   -1.5260   -2.3160 H   0  0  0  0  0  0  0  0  0  0  0  0
   -4.5923   -2.0373   -2.0305 H   0  0  0  0  0  0  0  0  0  0  0  0
    4.8700   -3.7734   -1.7682 H   0  0  0  0  0  0  0  0  0  0  0  0
    6.2444   -3.2060   -0.7204 H   0  0  0  0  0  0  0  0  0  0  0  0
    5.7753   -4.9020   -0.7656 H   0  0  0  0  0  0  0  0  0  0  0  0
   -4.7915    1.7306    3.4004 H   0  0  0  0  0  0  0  0  0  0  0  0
   -3.7271    2.2718    2.1103 H   0  0  0  0  0  0  0  0  0  0  0  0
   -3.3067    0.8271    3.1383 H   0  0  0  0  0  0  0  0  0  0  0  0
   -7.8106   -2.1072   -0.7339 H   0  0  0  0  0  0  0  0  0  0  0  0
   -6.3093   -2.9842   -1.0014 H   0  0  0  0  0  0  0  0  0  0  0  0
   -6.7493   -1.5386   -2.0165 H   0  0  0  0  0  0  0  0  0  0  0  0
  1 10  1  0  0  0  0
  1 36  1  0  0  0  0
  2 12  1  0  0  0  0
  2 37  1  0  0  0  0
  3 16  2  0  0  0  0
  4 20  1  0  0  0  0
  4 26  1  0  0  0  0
  5 23  1  0  0  0  0
  5 27  1  0  0  0  0
  6 25  1  0  0  0  0
  6 28  1  0  0  0  0
  7  9  1  0  0  0  0
  7 16  1  0  0  0  0
  7 35  1  0  0  0  0
  8  9  1  0  0  0  0
  8 11  1  0  0  0  0
  8 13  1  0  0  0  0
  8 29  1  0  0  0  0
  9 10  1  0  0  0  0
  9 30  1  0  0  0  0
 10 12  1  0  0  0  0
 10 31  1  0  0  0  0
 11 12  1  0  0  0  0
 11 32  1  0  0  0  0
 11 33  1  0  0  0  0
 12 34  1  0  0  0  0
 13 14  2  0  0  0  0
 13 15  1  0  0  0  0
 14 17  1  0  0  0  0
 14 38  1  0  0  0  0
 15 18  2  0  0  0  0
 15 39  1  0  0  0  0
 16 19  1  0  0  0  0
 17 20  2  0  0  0  0
 17 40  1  0  0  0  0
 18 20  1  0  0  0  0
 18 41  1  0  0  0  0
 19 21  2  0  0  0  0
 19 22  1  0  0  0  0
 21 23  1  0  0  0  0
 21 42  1  0  0  0  0
 22 24  2  0  0  0  0
 22 43  1  0  0  0  0
 23 25  2  0  0  0  0
 24 25  1  0  0  0  0
 24 44  1  0  0  0  0
 26 45  1  0  0  0  0
 26 46  1  0  0  0  0
 26 47  1  0  0  0  0
 27 48  1  0  0  0  0
 27 49  1  0  0  0  0
 27 50  1  0  0  0  0
 28 51  1  0  0  0  0
 28 52  1  0  0  0  0
 28 53  1  0  0  0  0
M  END
> <PUBCHEM_COMPOUND_CID>
71693882

> <PUBCHEM_CONFORMER_RMSD>
1

> <PUBCHEM_CONFORMER_DIVERSEORDER>
1
10
13
21
18
3
19
12
25
14
6
9
24
20
23
22
16
7
11
2
17
15
5
4
8

> <PUBCHEM_MMFF94_PARTIAL_CHARGES>
37
1 -0.68
10 0.28
12 0.28
13 -0.14
14 -0.15
15 -0.15
16 0.54
17 -0.15
18 -0.15
19 0.09
2 -0.68
20 0.08
21 -0.15
22 -0.15
23 0.08
24 -0.15
25 0.08
26 0.28
27 0.28
28 0.28
3 -0.57
35 0.37
36 0.4
37 0.4
38 0.15
39 0.15
4 -0.36
40 0.15
41 0.15
42 0.15
43 0.15
44 0.15
5 -0.36
6 -0.36
7 -0.73
8 0.14
9 0.3

> <PUBCHEM_EFFECTIVE_ROTOR_COUNT>
8

> <PUBCHEM_PHARMACOPHORE_FEATURES>
12
1 1 acceptor
1 1 donor
1 2 acceptor
1 2 donor
1 3 acceptor
1 4 acceptor
1 5 acceptor
1 6 acceptor
1 7 donor
5 8 9 10 11 12 rings
6 13 14 15 17 18 20 rings
6 19 21 22 23 24 25 rings

> <PUBCHEM_HEAVY_ATOM_COUNT>
28

> <PUBCHEM_ATOM_DEF_STEREO_COUNT>
4

> <PUBCHEM_ATOM_UDEF_STEREO_COUNT>
0

> <PUBCHEM_BOND_DEF_STEREO_COUNT>
0

> <PUBCHEM_BOND_UDEF_STEREO_COUNT>
0

> <PUBCHEM_ISOTOPIC_ATOM_COUNT>
0

> <PUBCHEM_COMPONENT_COUNT>
1

> <PUBCHEM_CACTVS_TAUTO_COUNT>
2

> <PUBCHEM_CONFORMER_ID>
0445F63A00000001

> <PUBCHEM_MMFF94_ENERGY>
110.4164

> <PUBCHEM_FEATURE_SELFOVERLAP>
60.915

> <PUBCHEM_SHAPE_FINGERPRINT>
10319926 262 16845295982292771615
10554248 39 18340187684207726887
10764073 3 15980334214988995294
10928967 22 18262511485976981539
11059845 2 17200526113057827779
11954058 11 18412261735558688183
12107183 9 18127981802122987601
12553582 1 18263636278124587898
12788726 201 17539120658701949672
13009979 54 18060139795273054136
13103583 49 18059017155230785587
13533116 47 18340763853701511467
13692114 37 17762887063433844562
13785724 45 18341334375060017631
13911852 28 18266456512180114726
14251764 30 18267867181667671766
14739800 52 17273967120067094920
14863182 85 18264757947926584516
14950920 106 18193866849825862603
17349148 13 17846492660773485655
17492 89 18412541037814501719
17818456 19 17917717859821323433
1813 80 18340209579276086110
19319366 153 17911798286501126985
20645477 70 18115294691715396557
20739085 24 18412827975567366564
20775438 99 18191572262705065595
21133410 230 15676639061969708051
21344244 78 18200294619981275009
22849341 161 18269005201765787672
22950370 63 18339928091478036670
23559900 14 18411129260531480323
255183 451 18411980243475773182
312423 11 18343305894298541041
3421961 26 18411130347041752346
34797466 226 16298672775895265735
3633792 109 18336815481976882215
3737641 26 18336828589905871912
4394409 98 14880056021799354606
4409770 3 17615403658640498180
4516262 110 18266457805429650557
474 4 18118681264833453441
5104073 3 18060147570018642635
5309563 4 18265890263807997558
6823239 73 15719399455219657149
70251023 43 18336543837494574730
7970288 3 18266735792608307326
8272917 22 18189890001392419485
86090 222 17240492428862299475

> <PUBCHEM_SHAPE_MULTIPOLES>
536.03
13.14
4.57
1.69
16.18
1.18
-0.66
-11.64
-0.39
-8.39
1.12
1.12
0.41
-2.2

> <PUBCHEM_SHAPE_SELFOVERLAP>
1145.209

> <PUBCHEM_SHAPE_VOLUME>
298.8

> <PUBCHEM_COORDINATE_TYPE>
2
5
10

$$$$
