45783667
  -OEChem-12032416203D

 50 54  0     1  0  0  0  0  0999 V2000
   -2.2102   -1.6092    2.0339 O   0  0  0  0  0  0  0  0  0  0  0  0
    0.5849    4.2171    1.3551 O   0  5  0  0  0  0  0  0  0  0  0  0
    1.2774    3.6529   -0.6503 O   0  0  0  0  0  0  0  0  0  0  0  0
   -4.2039   -0.6512   -0.9007 N   0  0  1  0  0  0  0  0  0  0  0  0
   -1.4108   -1.2360   -0.0248 N   0  0  0  0  0  0  0  0  0  0  0  0
   -0.8175   -1.5363    2.1643 N   0  0  0  0  0  0  0  0  0  0  0  0
    0.4139    3.6292    0.2598 N   0  3  0  0  0  0  0  0  0  0  0  0
    3.2796   -1.1175    1.2441 N   0  0  0  0  0  0  0  0  0  0  0  0
    4.9561   -0.7579   -0.3556 N   0  0  0  0  0  0  0  0  0  0  0  0
    7.1560   -0.6525   -0.0710 N   0  0  0  0  0  0  0  0  0  0  0  0
   -3.9332   -1.4559    0.3074 C   0  0  1  0  0  0  0  0  0  0  0  0
   -4.4182   -2.8731   -0.0498 C   0  0  0  0  0  0  0  0  0  0  0  0
   -4.9998   -2.7530   -1.4512 C   0  0  0  0  0  0  0  0  0  0  0  0
   -5.3416   -1.2816   -1.5708 C   0  0  0  0  0  0  0  0  0  0  0  0
   -4.4492    0.7556   -0.6108 C   0  0  0  0  0  0  0  0  0  0  0  0
   -2.4749   -1.4224    0.7144 C   0  0  0  0  0  0  0  0  0  0  0  0
   -3.1680    1.5123   -0.3808 C   0  0  0  0  0  0  0  0  0  0  0  0
   -2.9551    2.1732    0.8291 C   0  0  0  0  0  0  0  0  0  0  0  0
   -2.1938    1.5525   -1.3783 C   0  0  0  0  0  0  0  0  0  0  0  0
   -0.4183   -1.3143    0.9084 C   0  0  0  0  0  0  0  0  0  0  0  0
   -1.7683    2.8744    1.0413 C   0  0  0  0  0  0  0  0  0  0  0  0
   -1.0068    2.2538   -1.1660 C   0  0  0  0  0  0  0  0  0  0  0  0
    0.9636   -1.1678    0.5525 C   0  0  0  0  0  0  0  0  0  0  0  0
   -0.7942    2.9148    0.0437 C   0  0  0  0  0  0  0  0  0  0  0  0
    1.3444   -0.9390   -0.7651 C   0  0  0  0  0  0  0  0  0  0  0  0
    1.9606   -1.2480    1.5112 C   0  0  0  0  0  0  0  0  0  0  0  0
    2.6917   -0.7996   -1.0792 C   0  0  0  0  0  0  0  0  0  0  0  0
    3.6117   -0.8962   -0.0475 C   0  0  0  0  0  0  0  0  0  0  0  0
    5.4835   -0.5313   -1.5957 C   0  0  0  0  0  0  0  0  0  0  0  0
    5.9980   -0.8231    0.5272 C   0  0  0  0  0  0  0  0  0  0  0  0
    6.8423   -0.4702   -1.3947 C   0  0  0  0  0  0  0  0  0  0  0  0
   -4.5376   -1.1019    1.1544 H   0  0  0  0  0  0  0  0  0  0  0  0
   -3.6286   -3.6318   -0.0199 H   0  0  0  0  0  0  0  0  0  0  0  0
   -5.2060   -3.1799    0.6490 H   0  0  0  0  0  0  0  0  0  0  0  0
   -5.8707   -3.3993   -1.5946 H   0  0  0  0  0  0  0  0  0  0  0  0
   -4.2421   -3.0315   -2.1943 H   0  0  0  0  0  0  0  0  0  0  0  0
   -6.2870   -1.0676   -1.0562 H   0  0  0  0  0  0  0  0  0  0  0  0
   -5.4272   -0.9724   -2.6171 H   0  0  0  0  0  0  0  0  0  0  0  0
   -4.9337    1.2351   -1.4731 H   0  0  0  0  0  0  0  0  0  0  0  0
   -5.1481    0.8825    0.2264 H   0  0  0  0  0  0  0  0  0  0  0  0
   -3.7047    2.1482    1.6155 H   0  0  0  0  0  0  0  0  0  0  0  0
   -2.3471    1.0461   -2.3277 H   0  0  0  0  0  0  0  0  0  0  0  0
   -1.6365    3.3765    1.9963 H   0  0  0  0  0  0  0  0  0  0  0  0
   -0.2701    2.2630   -1.9653 H   0  0  0  0  0  0  0  0  0  0  0  0
    0.6129   -0.8645   -1.5657 H   0  0  0  0  0  0  0  0  0  0  0  0
    1.7477   -1.4236    2.5615 H   0  0  0  0  0  0  0  0  0  0  0  0
    2.9386   -0.6223   -2.1180 H   0  0  0  0  0  0  0  0  0  0  0  0
    4.9191   -0.4288   -2.5107 H   0  0  0  0  0  0  0  0  0  0  0  0
    5.8716   -0.9948    1.5883 H   0  0  0  0  0  0  0  0  0  0  0  0
    7.6107   -0.3041   -2.1355 H   0  0  0  0  0  0  0  0  0  0  0  0
  1  6  1  0  0  0  0
  1 16  1  0  0  0  0
  2  7  1  0  0  0  0
  3  7  2  0  0  0  0
  4 11  1  0  0  0  0
  4 14  1  0  0  0  0
  4 15  1  0  0  0  0
  5 16  2  0  0  0  0
  5 20  1  0  0  0  0
  6 20  2  0  0  0  0
  7 24  1  0  0  0  0
  8 26  1  0  0  0  0
  8 28  2  0  0  0  0
  9 28  1  0  0  0  0
  9 29  1  0  0  0  0
  9 30  1  0  0  0  0
 10 30  2  0  0  0  0
 10 31  1  0  0  0  0
 11 12  1  0  0  0  0
 11 16  1  0  0  0  0
 11 32  1  0  0  0  0
 12 13  1  0  0  0  0
 12 33  1  0  0  0  0
 12 34  1  0  0  0  0
 13 14  1  0  0  0  0
 13 35  1  0  0  0  0
 13 36  1  0  0  0  0
 14 37  1  0  0  0  0
 14 38  1  0  0  0  0
 15 17  1  0  0  0  0
 15 39  1  0  0  0  0
 15 40  1  0  0  0  0
 17 18  2  0  0  0  0
 17 19  1  0  0  0  0
 18 21  1  0  0  0  0
 18 41  1  0  0  0  0
 19 22  2  0  0  0  0
 19 42  1  0  0  0  0
 20 23  1  0  0  0  0
 21 24  2  0  0  0  0
 21 43  1  0  0  0  0
 22 24  1  0  0  0  0
 22 44  1  0  0  0  0
 23 25  1  0  0  0  0
 23 26  2  0  0  0  0
 25 27  2  0  0  0  0
 25 45  1  0  0  0  0
 26 46  1  0  0  0  0
 27 28  1  0  0  0  0
 27 47  1  0  0  0  0
 29 31  2  0  0  0  0
 29 48  1  0  0  0  0
 30 49  1  0  0  0  0
 31 50  1  0  0  0  0
M  CHG  2   2  -1   7   1
M  END
> <PUBCHEM_COMPOUND_CID>
45783667

> <PUBCHEM_CONFORMER_RMSD>
1

> <PUBCHEM_CONFORMER_DIVERSEORDER>
1
47
27
7
18
52
39
17
8
31
5
40
14
34
46
36
20
42
15
30
43
49
2
35
32
9
51
22
48
24
3
53
29
11
45
37
44
23
28
50
26
21
38
12
19
4
33
10
16
13
25
41
6

> <PUBCHEM_MMFF94_PARTIAL_CHARGES>
39
1 -0.02
10 -0.57
11 0.45
14 0.27
15 0.41
16 0.3
17 -0.14
18 -0.15
19 -0.15
2 -0.52
20 0.46
21 -0.15
22 -0.15
23 0.05
24 0.13
25 -0.15
26 0.16
27 -0.15
28 0.29
29 -0.3
3 -0.52
30 0.04
31 0.08
4 -0.81
41 0.15
42 0.15
43 0.15
44 0.15
45 0.15
46 0.15
47 0.15
48 0.15
49 0.15
5 -0.57
50 0.15
6 -0.41
7 0.91
8 -0.62
9 0.33

> <PUBCHEM_EFFECTIVE_ROTOR_COUNT>
7

> <PUBCHEM_PHARMACOPHORE_FEATURES>
12
1 2 acceptor
1 2 anion
1 3 acceptor
1 4 cation
3 5 6 20 cation
3 8 9 28 cation
3 9 10 30 cation
5 1 5 6 16 20 rings
5 4 11 12 13 14 rings
5 9 10 29 30 31 rings
6 17 18 19 21 22 24 rings
6 8 23 25 26 27 28 rings

> <PUBCHEM_HEAVY_ATOM_COUNT>
31

> <PUBCHEM_ATOM_DEF_STEREO_COUNT>
1

> <PUBCHEM_ATOM_UDEF_STEREO_COUNT>
0

> <PUBCHEM_BOND_DEF_STEREO_COUNT>
0

> <PUBCHEM_BOND_UDEF_STEREO_COUNT>
0

> <PUBCHEM_ISOTOPIC_ATOM_COUNT>
0

> <PUBCHEM_COMPONENT_COUNT>
1

> <PUBCHEM_CACTVS_TAUTO_COUNT>
1

> <PUBCHEM_CONFORMER_ID>
02BA9A7300000001

> <PUBCHEM_MMFF94_ENERGY>
68.566

> <PUBCHEM_FEATURE_SELFOVERLAP>
61.098

> <PUBCHEM_SHAPE_FINGERPRINT>
10032420 55 17895457168695467005
1100329 8 18411135810789331369
11524674 6 7853854971139825080
12107698 1 18411698811685722262
12156800 1 15434201472176894549
12166972 35 17822015362368920750
12788726 201 18261387798146270002
13761468 95 17828489067874252100
13782708 43 17703516493909657102
14068700 675 18271804661644349621
14931854 50 18113610162671594567
15183329 4 17895196550855847266
15876981 60 18409455777641923181
15968369 153 18059565937100505624
17492 54 18041830719706401965
18336668 15 18040723558082814117
19319366 153 17607240962263045619
20642791 35 18335685153974750309
20721686 56 18337672040063427464
20775438 99 17404559556731435575
21236236 1 18334018259443978102
21344244 246 17908695482204808271
23559900 14 17896878957536589261
255183 451 18053096513577394223
392239 28 18410299073444470928
4017518 198 16974755019330450936
4280585 95 18409719673380859053
484989 97 17605561161957779883
5171179 24 18269831068116359945
531348 171 18199474255600742718
57527585 103 17388574624636703099

> <PUBCHEM_SHAPE_MULTIPOLES>
585.49
13.54
4.12
1.67
20.9
5
0.22
-9
-5.91
-3.9
0.63
-0.14
-0.4
-0.6

> <PUBCHEM_SHAPE_SELFOVERLAP>
1296.129

> <PUBCHEM_SHAPE_VOLUME>
316.6

> <PUBCHEM_COORDINATE_TYPE>
2
5
10

$$$$
