75367654
  -OEChem-12032416403D

 44 46  0     1  0  0  0  0  0999 V2000
    5.9226    0.0049    1.2179 F   0  0  0  0  0  0  0  0  0  0  0  0
    4.9372   -1.9068    1.4966 F   0  0  0  0  0  0  0  0  0  0  0  0
    5.9636   -1.4781   -0.3716 F   0  0  0  0  0  0  0  0  0  0  0  0
   -1.6035    3.9265   -0.2128 O   0  0  0  0  0  0  0  0  0  0  0  0
    0.4144    1.2221   -1.4662 O   0  0  0  0  0  0  0  0  0  0  0  0
   -2.9515   -2.1982    0.5074 O   0  0  0  0  0  0  0  0  0  0  0  0
   -2.6428    1.1214    0.6688 N   0  0  2  0  0  0  0  0  0  0  0  0
    1.7922    0.7759    0.3440 N   0  0  0  0  0  0  0  0  0  0  0  0
   -1.3790    0.7110    0.0469 C   0  0  0  0  0  0  0  0  0  0  0  0
   -0.4596    1.8128   -0.5033 C   0  0  2  0  0  0  0  0  0  0  0  0
   -2.5602    2.3609    1.4427 C   0  0  0  0  0  0  0  0  0  0  0  0
   -1.1931    2.9639   -1.1783 C   0  0  0  0  0  0  0  0  0  0  0  0
   -3.1885    0.0249    1.4697 C   0  0  0  0  0  0  0  0  0  0  0  0
   -2.7643    3.5650    0.5223 C   0  0  0  0  0  0  0  0  0  0  0  0
   -3.7260   -1.0859    0.6071 C   0  0  0  0  0  0  0  0  0  0  0  0
   -4.8757   -1.2295   -0.1343 C   0  0  0  0  0  0  0  0  0  0  0  0
    1.5804    0.6907   -0.9885 C   0  0  0  0  0  0  0  0  0  0  0  0
   -3.6141   -3.0613   -0.3064 C   0  0  0  0  0  0  0  0  0  0  0  0
   -4.8032   -2.5124   -0.7274 C   0  0  0  0  0  0  0  0  0  0  0  0
    2.4659    0.1047   -1.8786 C   0  0  0  0  0  0  0  0  0  0  0  0
   -2.9556   -4.3505   -0.5611 C   0  0  0  0  0  0  0  0  0  0  0  0
    3.6445   -0.4284   -1.3684 C   0  0  0  0  0  0  0  0  0  0  0  0
    3.8981   -0.3599   -0.0030 C   0  0  0  0  0  0  0  0  0  0  0  0
    2.9486    0.2470    0.8033 C   0  0  0  0  0  0  0  0  0  0  0  0
    5.1492   -0.9206    0.5734 C   0  0  0  0  0  0  0  0  0  0  0  0
   -1.6119    0.0244   -0.7783 H   0  0  0  0  0  0  0  0  0  0  0  0
   -0.7829    0.1190    0.7550 H   0  0  0  0  0  0  0  0  0  0  0  0
    0.0978    2.2678    0.3270 H   0  0  0  0  0  0  0  0  0  0  0  0
   -1.6218    2.4278    2.0058 H   0  0  0  0  0  0  0  0  0  0  0  0
   -3.3755    2.4023    2.1760 H   0  0  0  0  0  0  0  0  0  0  0  0
   -0.5104    3.4812   -1.8623 H   0  0  0  0  0  0  0  0  0  0  0  0
   -2.0399    2.6256   -1.7879 H   0  0  0  0  0  0  0  0  0  0  0  0
   -4.0453    0.3751    2.0612 H   0  0  0  0  0  0  0  0  0  0  0  0
   -2.4577   -0.3611    2.1919 H   0  0  0  0  0  0  0  0  0  0  0  0
   -3.6103    3.4206   -0.1613 H   0  0  0  0  0  0  0  0  0  0  0  0
   -3.0134    4.4332    1.1429 H   0  0  0  0  0  0  0  0  0  0  0  0
   -5.6679   -0.5017   -0.2361 H   0  0  0  0  0  0  0  0  0  0  0  0
   -5.5286   -2.9764   -1.3802 H   0  0  0  0  0  0  0  0  0  0  0  0
    2.2530    0.0594   -2.9411 H   0  0  0  0  0  0  0  0  0  0  0  0
   -1.9780   -4.1969   -1.0286 H   0  0  0  0  0  0  0  0  0  0  0  0
   -2.8076   -4.8980    0.3748 H   0  0  0  0  0  0  0  0  0  0  0  0
   -3.5561   -4.9761   -1.2287 H   0  0  0  0  0  0  0  0  0  0  0  0
    4.3525   -0.8926   -2.0491 H   0  0  0  0  0  0  0  0  0  0  0  0
    3.0912    0.3298    1.8763 H   0  0  0  0  0  0  0  0  0  0  0  0
  1 25  1  0  0  0  0
  2 25  1  0  0  0  0
  3 25  1  0  0  0  0
  4 12  1  0  0  0  0
  4 14  1  0  0  0  0
  5 10  1  0  0  0  0
  5 17  1  0  0  0  0
  6 15  1  0  0  0  0
  6 18  1  0  0  0  0
  7  9  1  0  0  0  0
  7 11  1  0  0  0  0
  7 13  1  0  0  0  0
  8 17  2  0  0  0  0
  8 24  1  0  0  0  0
  9 10  1  0  0  0  0
  9 26  1  0  0  0  0
  9 27  1  0  0  0  0
 10 12  1  0  0  0  0
 10 28  1  0  0  0  0
 11 14  1  0  0  0  0
 11 29  1  0  0  0  0
 11 30  1  0  0  0  0
 12 31  1  0  0  0  0
 12 32  1  0  0  0  0
 13 15  1  0  0  0  0
 13 33  1  0  0  0  0
 13 34  1  0  0  0  0
 14 35  1  0  0  0  0
 14 36  1  0  0  0  0
 15 16  2  0  0  0  0
 16 19  1  0  0  0  0
 16 37  1  0  0  0  0
 17 20  1  0  0  0  0
 18 19  2  0  0  0  0
 18 21  1  0  0  0  0
 19 38  1  0  0  0  0
 20 22  2  0  0  0  0
 20 39  1  0  0  0  0
 21 40  1  0  0  0  0
 21 41  1  0  0  0  0
 21 42  1  0  0  0  0
 22 23  1  0  0  0  0
 22 43  1  0  0  0  0
 23 24  2  0  0  0  0
 23 25  1  0  0  0  0
 24 44  1  0  0  0  0
M  END
> <PUBCHEM_COMPOUND_CID>
75367654

> <PUBCHEM_CONFORMER_RMSD>
1.2

> <PUBCHEM_CONFORMER_DIVERSEORDER>
1
54
40
37
62
6
12
42
38
4
8
36
61
16
30
28
22
63
10
43
52
44
7
58
49
51
45
2
25
47
41
46
50
57
53
5
21
20
17
3
32
15
59
56
19
34
18
35
13
55
48
33
64
60
29
23
24
14
9
31
11
27
26
39

> <PUBCHEM_MMFF94_PARTIAL_CHARGES>
30
1 -0.34
10 0.28
11 0.27
12 0.28
13 0.45
14 0.28
15 -0.04
16 -0.15
17 0.39
18 -0.04
19 -0.15
2 -0.34
20 -0.15
21 0.18
22 -0.15
23 -0.14
24 0.16
25 1.16
3 -0.34
37 0.15
38 0.15
39 0.15
4 -0.56
43 0.15
44 0.15
5 -0.36
6 -0.28
7 -0.81
8 -0.62
9 0.27

> <PUBCHEM_EFFECTIVE_ROTOR_COUNT>
6.4

> <PUBCHEM_PHARMACOPHORE_FEATURES>
6
1 4 acceptor
1 6 acceptor
1 7 cation
5 6 15 16 18 19 rings
6 8 17 20 22 23 24 rings
7 4 7 9 10 11 12 14 rings

> <PUBCHEM_HEAVY_ATOM_COUNT>
25

> <PUBCHEM_ATOM_DEF_STEREO_COUNT>
1

> <PUBCHEM_ATOM_UDEF_STEREO_COUNT>
0

> <PUBCHEM_BOND_DEF_STEREO_COUNT>
0

> <PUBCHEM_BOND_UDEF_STEREO_COUNT>
0

> <PUBCHEM_ISOTOPIC_ATOM_COUNT>
0

> <PUBCHEM_COMPONENT_COUNT>
1

> <PUBCHEM_CACTVS_TAUTO_COUNT>
1

> <PUBCHEM_CONFORMER_ID>
047E04E600000001

> <PUBCHEM_MMFF94_ENERGY>
56.1388

> <PUBCHEM_FEATURE_SELFOVERLAP>
30.447

> <PUBCHEM_SHAPE_FINGERPRINT>
10483366 6 18264471942117742101
11049842 53 16820833832865529884
11552529 35 18339358574429832392
12166972 35 17823418378288501455
12523318 42 18342173336733466920
12553582 1 18194426565405164751
12633257 1 17988097624679353881
12788726 201 18335999634777903797
13004483 165 18340769346848593045
13583140 156 17987788614888685144
13994607 96 10735876188491695191
14081887 123 18201449047155517599
14100547 121 18193271901654298787
14844126 61 18408606933586205785
14910302 57 18058184850724827735
17492 89 17833833051300999799
19032999 76 18338226171668086443
20621476 51 18410013234437777711
20775530 9 17909280413948719039
23559900 14 18270111443924256353
238918 7 17917720075613427311
255183 313 18128274307072002569
339767 52 18410288159647832511
3459 110 16988268897824367146
397830 11 18271793620117037954
463206 1 18188771785467380427
484985 159 18262224526558518999
508706 21 18270695155274937094
5924683 9 18410009901337453720
602551 16 18341341006853096942
6034566 193 10843971920712273822
613672 6 18200038472727583959
653340 110 18341048515138118174
7471813 234 18187650253341512436
7970288 3 18264490753225971163
88748 71 17975137853412417075
9795274 37 17545610410348075083

> <PUBCHEM_SHAPE_MULTIPOLES>
465.1
12.06
4.58
1.44
13.45
0.54
-0.1
-10.8
2.67
-7.21
-0.47
0.86
0.23
-1.56

> <PUBCHEM_SHAPE_SELFOVERLAP>
987.645

> <PUBCHEM_SHAPE_VOLUME>
260.1

> <PUBCHEM_COORDINATE_TYPE>
2
5
10

$$$$
