75367798
  -OEChem-12032416403D

 49 51  0     1  0  0  0  0  0999 V2000
   -0.6791   -4.1615   -0.9154 O   0  0  0  0  0  0  0  0  0  0  0  0
   -2.1030   -0.8992   -0.3799 O   0  0  0  0  0  0  0  0  0  0  0  0
    4.5057    3.1685   -0.9266 O   0  0  0  0  0  0  0  0  0  0  0  0
    1.3205   -2.1604    0.3974 N   0  0  2  0  0  0  0  0  0  0  0  0
    0.1066   -1.3383    0.4521 C   0  0  0  0  0  0  0  0  0  0  0  0
   -1.2042   -1.9606   -0.0547 C   0  0  2  0  0  0  0  0  0  0  0  0
    1.1038   -3.5773    0.6931 C   0  0  0  0  0  0  0  0  0  0  0  0
   -1.0468   -2.8379   -1.2894 C   0  0  0  0  0  0  0  0  0  0  0  0
    2.3560   -1.5858    1.2571 C   0  0  0  0  0  0  0  0  0  0  0  0
    0.6925   -4.3188   -0.5796 C   0  0  0  0  0  0  0  0  0  0  0  0
    2.9288   -0.3205    0.6758 C   0  0  0  0  0  0  0  0  0  0  0  0
   -2.7302   -0.3813    0.7825 C   0  0  0  0  0  0  0  0  0  0  0  0
    2.5512    0.9180    1.1946 C   0  0  0  0  0  0  0  0  0  0  0  0
    3.8363   -0.3865   -0.3815 C   0  0  0  0  0  0  0  0  0  0  0  0
   -3.6604    0.7269    0.3848 C   0  0  0  0  0  0  0  0  0  0  0  0
    3.0814    2.0906    0.6563 C   0  0  0  0  0  0  0  0  0  0  0  0
    4.3664    0.7859   -0.9198 C   0  0  0  0  0  0  0  0  0  0  0  0
    3.9890    2.0245   -0.4007 C   0  0  0  0  0  0  0  0  0  0  0  0
   -3.1961    2.0410    0.3273 C   0  0  0  0  0  0  0  0  0  0  0  0
   -4.9895    0.4426    0.0720 C   0  0  0  0  0  0  0  0  0  0  0  0
   -4.0610    3.0709   -0.0430 C   0  0  0  0  0  0  0  0  0  0  0  0
   -5.8545    1.4724   -0.2985 C   0  0  0  0  0  0  0  0  0  0  0  0
   -5.3903    2.7865   -0.3557 C   0  0  0  0  0  0  0  0  0  0  0  0
    4.0767    4.4004   -0.3482 C   0  0  0  0  0  0  0  0  0  0  0  0
   -0.0726   -1.0164    1.4866 H   0  0  0  0  0  0  0  0  0  0  0  0
    0.2835   -0.4182   -0.1201 H   0  0  0  0  0  0  0  0  0  0  0  0
   -1.6386   -2.5823    0.7409 H   0  0  0  0  0  0  0  0  0  0  0  0
    0.3784   -3.7179    1.5031 H   0  0  0  0  0  0  0  0  0  0  0  0
    2.0423   -4.0418    1.0208 H   0  0  0  0  0  0  0  0  0  0  0  0
   -2.0102   -2.9165   -1.8063 H   0  0  0  0  0  0  0  0  0  0  0  0
   -0.3415   -2.4194   -2.0177 H   0  0  0  0  0  0  0  0  0  0  0  0
    3.2022   -2.2797    1.3601 H   0  0  0  0  0  0  0  0  0  0  0  0
    1.9948   -1.4253    2.2820 H   0  0  0  0  0  0  0  0  0  0  0  0
    1.3213   -4.0445   -1.4359 H   0  0  0  0  0  0  0  0  0  0  0  0
    0.8441   -5.3918   -0.4161 H   0  0  0  0  0  0  0  0  0  0  0  0
   -1.9934    0.0075    1.4941 H   0  0  0  0  0  0  0  0  0  0  0  0
   -3.2951   -1.1718    1.2927 H   0  0  0  0  0  0  0  0  0  0  0  0
    1.8442    0.9827    2.0175 H   0  0  0  0  0  0  0  0  0  0  0  0
    4.1378   -1.3454   -0.7947 H   0  0  0  0  0  0  0  0  0  0  0  0
    2.7449    3.0182    1.1066 H   0  0  0  0  0  0  0  0  0  0  0  0
    5.0728    0.7283   -1.7434 H   0  0  0  0  0  0  0  0  0  0  0  0
   -2.1619    2.2747    0.5663 H   0  0  0  0  0  0  0  0  0  0  0  0
   -5.3627   -0.5774    0.1108 H   0  0  0  0  0  0  0  0  0  0  0  0
   -3.6994    4.0940   -0.0884 H   0  0  0  0  0  0  0  0  0  0  0  0
   -6.8893    1.2510   -0.5427 H   0  0  0  0  0  0  0  0  0  0  0  0
   -6.0637    3.5882   -0.6443 H   0  0  0  0  0  0  0  0  0  0  0  0
    4.5866    5.2055   -0.8875 H   0  0  0  0  0  0  0  0  0  0  0  0
    4.3779    4.4784    0.7020 H   0  0  0  0  0  0  0  0  0  0  0  0
    3.0010    4.5557   -0.4843 H   0  0  0  0  0  0  0  0  0  0  0  0
  1  8  1  0  0  0  0
  1 10  1  0  0  0  0
  2  6  1  0  0  0  0
  2 12  1  0  0  0  0
  3 18  1  0  0  0  0
  3 24  1  0  0  0  0
  4  5  1  0  0  0  0
  4  7  1  0  0  0  0
  4  9  1  0  0  0  0
  5  6  1  0  0  0  0
  5 25  1  0  0  0  0
  5 26  1  0  0  0  0
  6  8  1  0  0  0  0
  6 27  1  0  0  0  0
  7 10  1  0  0  0  0
  7 28  1  0  0  0  0
  7 29  1  0  0  0  0
  8 30  1  0  0  0  0
  8 31  1  0  0  0  0
  9 11  1  0  0  0  0
  9 32  1  0  0  0  0
  9 33  1  0  0  0  0
 10 34  1  0  0  0  0
 10 35  1  0  0  0  0
 11 13  2  0  0  0  0
 11 14  1  0  0  0  0
 12 15  1  0  0  0  0
 12 36  1  0  0  0  0
 12 37  1  0  0  0  0
 13 16  1  0  0  0  0
 13 38  1  0  0  0  0
 14 17  2  0  0  0  0
 14 39  1  0  0  0  0
 15 19  2  0  0  0  0
 15 20  1  0  0  0  0
 16 18  2  0  0  0  0
 16 40  1  0  0  0  0
 17 18  1  0  0  0  0
 17 41  1  0  0  0  0
 19 21  1  0  0  0  0
 19 42  1  0  0  0  0
 20 22  2  0  0  0  0
 20 43  1  0  0  0  0
 21 23  2  0  0  0  0
 21 44  1  0  0  0  0
 22 23  1  0  0  0  0
 22 45  1  0  0  0  0
 23 46  1  0  0  0  0
 24 47  1  0  0  0  0
 24 48  1  0  0  0  0
 24 49  1  0  0  0  0
M  END
> <PUBCHEM_COMPOUND_CID>
75367798

> <PUBCHEM_CONFORMER_RMSD>
0.8

> <PUBCHEM_CONFORMER_DIVERSEORDER>
1
36
179
196
85
95
192
175
135
197
139
38
9
209
215
212
162
32
166
88
8
65
213
50
13
122
6
217
58
91
72
21
145
181
52
188
211
199
160
80
187
214
111
74
115
148
137
114
78
134
185
121
221
167
97
220
173
64
20
174
158
86
186
53
12
202
112
30
49
155
105
37
206
33
19
63
198
125
57
161
70
55
169
108
34
61
87
201
182
119
24
149
146
69
71
207
73
62
171
164
191
82
43
147
128
46
22
17
94
163
54
7
184
5
96
172
124
218
104
176
117
3
183
219
56
165
101
93
222
159
77
178
89
127
109
14
76
100
150
193
142
98
141
66
10
133
16
4
68
31
113
190
204
154
99
189
102
132
2
194
153
27
47
156
92
144
130
25
84
120
103
90
203
143
118
205
48
116
44
35
83
75
45
28
15
41
131
40
152
180
210
110
170
106
129
51
208
136
126
39
81
67
42
79
177
23
123
138
168
195
29
216
26
107
140
151
60
18
157
11
59
200

> <PUBCHEM_MMFF94_PARTIAL_CHARGES>
33
1 -0.56
10 0.28
11 -0.14
12 0.42
13 -0.15
14 -0.15
15 -0.14
16 -0.15
17 -0.15
18 0.08
19 -0.15
2 -0.56
20 -0.15
21 -0.15
22 -0.15
23 -0.15
24 0.28
3 -0.36
38 0.15
39 0.15
4 -0.81
40 0.15
41 0.15
42 0.15
43 0.15
44 0.15
45 0.15
46 0.15
5 0.27
6 0.28
7 0.27
8 0.28
9 0.41

> <PUBCHEM_EFFECTIVE_ROTOR_COUNT>
7.4

> <PUBCHEM_PHARMACOPHORE_FEATURES>
7
1 1 acceptor
1 2 acceptor
1 3 acceptor
1 4 cation
6 11 13 14 16 17 18 rings
6 15 19 20 21 22 23 rings
7 1 4 5 6 7 8 10 rings

> <PUBCHEM_HEAVY_ATOM_COUNT>
24

> <PUBCHEM_ATOM_DEF_STEREO_COUNT>
1

> <PUBCHEM_ATOM_UDEF_STEREO_COUNT>
0

> <PUBCHEM_BOND_DEF_STEREO_COUNT>
0

> <PUBCHEM_BOND_UDEF_STEREO_COUNT>
0

> <PUBCHEM_ISOTOPIC_ATOM_COUNT>
0

> <PUBCHEM_COMPONENT_COUNT>
1

> <PUBCHEM_CACTVS_TAUTO_COUNT>
1

> <PUBCHEM_CONFORMER_ID>
047E057600000001

> <PUBCHEM_MMFF94_ENERGY>
81.0673

> <PUBCHEM_FEATURE_SELFOVERLAP>
35.522

> <PUBCHEM_SHAPE_FINGERPRINT>
10483366 6 18124330315844905534
10871710 139 18122905593007785215
10937287 8 18410572933037561394
11477941 20 16757760924190759812
11720765 8 18129675084906465732
12107183 9 18335686266471293128
12173636 292 18197488722015333206
12403259 118 18336252471161157315
12788726 201 17833256893784832938
13590594 115 17257100263751892515
13944108 23 18048321050450712340
14114211 80 18200611275351624433
14251764 38 18120092784808931369
14251764 75 18340216257940221241
14468879 13 18261117378684223105
1454969 45 18341612677179606711
14790565 3 18410576218835417885
15142526 21 18040716986898428195
151778 21 18338231570389184345
15198563 99 17908986857192387359
15475509 35 10158538043247898765
15575132 122 18337394962932390935
15961568 22 17968947370718825637
16988056 13 17906731401854351070
17134986 127 18412827967141436346
18681886 176 18339354163830384856
18785283 64 18194117417680333463
20465049 17 18340498755155779126
20567600 9 18196099849718483077
21033650 10 17756724284060195788
21388113 180 18410581694850434453
21857420 4 17256523016089369324
21860390 5 17838894837377451767
21864079 5 18263080079890956160
23559900 14 17911226218928170523
245318 6 18041295338636897125
26353 1 16550276417986565295
3298306 158 18343015554540934457
3388396 114 16680636797208973740
397830 11 18118141191031262617
474 4 18267580217875250643
5048184 11 18338516451401704336
550186 72 18264490762485019525
7288768 16 17604991592662533984
7808743 9 18194682798680027704
9849439 229 18339347686461078856

> <PUBCHEM_SHAPE_MULTIPOLES>
471.32
11.78
6.06
1.05
10.87
1.84
0.02
-15.33
-1.4
-3.68
-1.62
-0.59
0.31
-1

> <PUBCHEM_SHAPE_SELFOVERLAP>
988.529

> <PUBCHEM_SHAPE_VOLUME>
264.4

> <PUBCHEM_COORDINATE_TYPE>
2
5
10

$$$$
