11885887
  -OEChem-12032416213D

 60 64  0     1  0  0  0  0  0999 V2000
   -1.7284   -5.2838   -0.6878 F   0  0  0  0  0  0  0  0  0  0  0  0
   -0.1102    2.8071    1.2905 O   0  0  0  0  0  0  0  0  0  0  0  0
   -3.8996   -0.4598    2.6070 O   0  0  0  0  0  0  0  0  0  0  0  0
    2.3234   -0.6570   -1.0306 O   0  0  0  0  0  0  0  0  0  0  0  0
    6.3213    1.4867    1.2759 O   0  0  0  0  0  0  0  0  0  0  0  0
   -4.3931    0.3796    0.4795 N   0  0  0  0  0  0  0  0  0  0  0  0
   -1.8552    2.1814   -0.1318 N   0  0  0  0  0  0  0  0  0  0  0  0
    1.7680    1.4176   -0.1561 N   0  0  0  0  0  0  0  0  0  0  0  0
    3.9112    0.6412    0.1107 N   0  0  0  0  0  0  0  0  0  0  0  0
   -4.2906    2.8585    0.2840 C   0  0  1  0  0  0  0  0  0  0  0  0
   -3.7239    1.4541   -1.6571 C   0  0  2  0  0  0  0  0  0  0  0  0
   -4.4339    2.7377   -1.2293 C   0  0  0  0  0  0  0  0  0  0  0  0
   -4.9289    1.6442    0.9825 C   0  0  0  0  0  0  0  0  0  0  0  0
   -2.8035    3.0073    0.6291 C   0  0  0  0  0  0  0  0  0  0  0  0
   -4.4000    0.2417   -0.9860 C   0  0  0  0  0  0  0  0  0  0  0  0
   -2.2545    1.4924   -1.2817 C   0  0  0  0  0  0  0  0  0  0  0  0
   -1.3483    0.8381   -2.0273 C   0  0  0  0  0  0  0  0  0  0  0  0
   -0.5123    2.2018    0.2957 C   0  0  0  0  0  0  0  0  0  0  0  0
   -3.9080   -0.5695    1.3822 C   0  0  0  0  0  0  0  0  0  0  0  0
    0.4616    1.4376   -0.5468 C   0  0  0  0  0  0  0  0  0  0  0  0
    0.0363    0.8111   -1.6489 C   0  0  0  0  0  0  0  0  0  0  0  0
   -3.3365   -1.8058    0.8383 C   0  0  0  0  0  0  0  0  0  0  0  0
   -1.9771   -1.8693    0.5432 C   0  0  0  0  0  0  0  0  0  0  0  0
   -4.1557   -2.9108    0.6209 C   0  0  0  0  0  0  0  0  0  0  0  0
    2.6474    0.3588   -0.4192 C   0  0  0  0  0  0  0  0  0  0  0  0
   -1.4332   -3.0455    0.0272 C   0  0  0  0  0  0  0  0  0  0  0  0
   -3.6116   -4.0871    0.1050 C   0  0  0  0  0  0  0  0  0  0  0  0
   -2.2504   -4.1544   -0.1919 C   0  0  0  0  0  0  0  0  0  0  0  0
    5.0732   -0.1638    0.0620 C   0  0  0  0  0  0  0  0  0  0  0  0
    6.2489    0.2795    0.6469 C   0  0  0  0  0  0  0  0  0  0  0  0
    5.0062   -1.3921   -0.5771 C   0  0  0  0  0  0  0  0  0  0  0  0
    7.3866   -0.5258    0.5914 C   0  0  0  0  0  0  0  0  0  0  0  0
    6.1439   -2.1974   -0.6325 C   0  0  0  0  0  0  0  0  0  0  0  0
    7.3341   -1.7642   -0.0483 C   0  0  0  0  0  0  0  0  0  0  0  0
    6.6928    2.6099    0.4802 C   0  0  0  0  0  0  0  0  0  0  0  0
   -4.8169    3.7556    0.6328 H   0  0  0  0  0  0  0  0  0  0  0  0
   -3.8273    1.3513   -2.7451 H   0  0  0  0  0  0  0  0  0  0  0  0
   -5.4931    2.7024   -1.5119 H   0  0  0  0  0  0  0  0  0  0  0  0
   -3.9963    3.6104   -1.7300 H   0  0  0  0  0  0  0  0  0  0  0  0
   -4.7952    1.7178    2.0670 H   0  0  0  0  0  0  0  0  0  0  0  0
   -6.0089    1.6294    0.7912 H   0  0  0  0  0  0  0  0  0  0  0  0
   -2.6384    2.8331    1.6998 H   0  0  0  0  0  0  0  0  0  0  0  0
   -2.5028    4.0475    0.4432 H   0  0  0  0  0  0  0  0  0  0  0  0
   -3.9228   -0.6865   -1.3095 H   0  0  0  0  0  0  0  0  0  0  0  0
   -5.4515    0.1807   -1.2928 H   0  0  0  0  0  0  0  0  0  0  0  0
   -1.6356    0.2880   -2.9172 H   0  0  0  0  0  0  0  0  0  0  0  0
    0.6871    0.2879   -2.3390 H   0  0  0  0  0  0  0  0  0  0  0  0
    2.0440    2.0816    0.5622 H   0  0  0  0  0  0  0  0  0  0  0  0
   -1.3300   -1.0152    0.7204 H   0  0  0  0  0  0  0  0  0  0  0  0
   -5.2174   -2.8683    0.8486 H   0  0  0  0  0  0  0  0  0  0  0  0
   -0.3730   -3.0982   -0.2024 H   0  0  0  0  0  0  0  0  0  0  0  0
   -4.2477   -4.9506   -0.0660 H   0  0  0  0  0  0  0  0  0  0  0  0
    4.0152    1.5305    0.5925 H   0  0  0  0  0  0  0  0  0  0  0  0
    4.1287   -1.8021   -1.0534 H   0  0  0  0  0  0  0  0  0  0  0  0
    8.3172   -0.1953    1.0448 H   0  0  0  0  0  0  0  0  0  0  0  0
    6.1045   -3.1620   -1.1302 H   0  0  0  0  0  0  0  0  0  0  0  0
    8.2199   -2.3912   -0.0914 H   0  0  0  0  0  0  0  0  0  0  0  0
    6.6635    3.5019    1.1120 H   0  0  0  0  0  0  0  0  0  0  0  0
    7.7108    2.4860    0.0975 H   0  0  0  0  0  0  0  0  0  0  0  0
    5.9943    2.7478   -0.3512 H   0  0  0  0  0  0  0  0  0  0  0  0
  1 28  1  0  0  0  0
  2 18  2  0  0  0  0
  3 19  2  0  0  0  0
  4 25  2  0  0  0  0
  5 30  1  0  0  0  0
  5 35  1  0  0  0  0
  6 13  1  0  0  0  0
  6 15  1  0  0  0  0
  6 19  1  0  0  0  0
  7 14  1  0  0  0  0
  7 16  1  0  0  0  0
  7 18  1  0  0  0  0
  8 20  1  0  0  0  0
  8 25  1  0  0  0  0
  8 48  1  0  0  0  0
  9 25  1  0  0  0  0
  9 29  1  0  0  0  0
  9 53  1  0  0  0  0
 10 12  1  0  0  0  0
 10 13  1  0  0  0  0
 10 14  1  0  0  0  0
 10 36  1  0  0  0  0
 11 12  1  0  0  0  0
 11 15  1  0  0  0  0
 11 16  1  0  0  0  0
 11 37  1  0  0  0  0
 12 38  1  0  0  0  0
 12 39  1  0  0  0  0
 13 40  1  0  0  0  0
 13 41  1  0  0  0  0
 14 42  1  0  0  0  0
 14 43  1  0  0  0  0
 15 44  1  0  0  0  0
 15 45  1  0  0  0  0
 16 17  2  0  0  0  0
 17 21  1  0  0  0  0
 17 46  1  0  0  0  0
 18 20  1  0  0  0  0
 19 22  1  0  0  0  0
 20 21  2  0  0  0  0
 21 47  1  0  0  0  0
 22 23  2  0  0  0  0
 22 24  1  0  0  0  0
 23 26  1  0  0  0  0
 23 49  1  0  0  0  0
 24 27  2  0  0  0  0
 24 50  1  0  0  0  0
 26 28  2  0  0  0  0
 26 51  1  0  0  0  0
 27 28  1  0  0  0  0
 27 52  1  0  0  0  0
 29 30  1  0  0  0  0
 29 31  2  0  0  0  0
 30 32  2  0  0  0  0
 31 33  1  0  0  0  0
 31 54  1  0  0  0  0
 32 34  1  0  0  0  0
 32 55  1  0  0  0  0
 33 34  2  0  0  0  0
 33 56  1  0  0  0  0
 34 57  1  0  0  0  0
 35 58  1  0  0  0  0
 35 59  1  0  0  0  0
 35 60  1  0  0  0  0
M  END
> <PUBCHEM_COMPOUND_CID>
11885887

> <PUBCHEM_CONFORMER_RMSD>
1

> <PUBCHEM_CONFORMER_DIVERSEORDER>
1
35
12
26
33
42
14
34
19
21
36
17
29
24
32
30
18
38
23
13
27
31
40
41
6
8
28
7
37
5
16
10
20
39
25
4
9
11
22
2
15
3

> <PUBCHEM_MMFF94_PARTIAL_CHARGES>
45
1 -0.19
11 0.14
13 0.3
14 0.3
15 0.3
16 -0.03
17 -0.15
18 0.62
19 0.54
2 -0.57
20 0.12
21 -0.15
22 0.09
23 -0.15
24 -0.15
25 0.69
26 -0.15
27 -0.15
28 0.19
29 0.12
3 -0.57
30 0.08
31 -0.15
32 -0.15
33 -0.15
34 -0.15
35 0.28
4 -0.57
46 0.15
47 0.15
48 0.37
49 0.15
5 -0.36
50 0.15
51 0.15
52 0.15
53 0.37
54 0.15
55 0.15
56 0.15
57 0.15
6 -0.66
7 -0.47
8 -0.54
9 -0.55

> <PUBCHEM_EFFECTIVE_ROTOR_COUNT>
8

> <PUBCHEM_PHARMACOPHORE_FEATURES>
11
1 2 acceptor
1 3 acceptor
1 4 acceptor
1 5 acceptor
1 8 donor
1 9 donor
6 22 23 24 26 27 28 rings
6 29 30 31 32 33 34 rings
6 6 10 11 12 13 15 rings
6 7 10 11 12 14 16 rings
6 7 16 17 18 20 21 rings

> <PUBCHEM_HEAVY_ATOM_COUNT>
35

> <PUBCHEM_ATOM_DEF_STEREO_COUNT>
2

> <PUBCHEM_ATOM_UDEF_STEREO_COUNT>
0

> <PUBCHEM_BOND_DEF_STEREO_COUNT>
0

> <PUBCHEM_BOND_UDEF_STEREO_COUNT>
0

> <PUBCHEM_ISOTOPIC_ATOM_COUNT>
0

> <PUBCHEM_COMPONENT_COUNT>
1

> <PUBCHEM_CACTVS_TAUTO_COUNT>
3

> <PUBCHEM_CONFORMER_ID>
00B55D3F00000001

> <PUBCHEM_MMFF94_ENERGY>
116.9216

> <PUBCHEM_FEATURE_SELFOVERLAP>
57.456

> <PUBCHEM_SHAPE_FINGERPRINT>
10483366 6 18337656621547748679
10675989 125 17181642984499557845
10864689 126 18120657929553515886
11524674 6 18337951186734983455
12643181 29 18335698283526503686
14659021 117 18341036519552325759
14844126 61 18336266842459092803
14866123 147 18408887343358772659
14950920 106 17917158302522567352
15021287 119 16877951533429661012
15183329 4 14779552283833224520
15348495 7 18413105065962918024
15361156 5 17894923944775073788
15439362 3 17542783106756111661
19611394 137 18272651277598964920
19958102 18 18263076639527421134
23559900 14 18410567388499228096
244849 19 17773575278638843234
249057 3 17749389226710675069
3383291 50 18410572890631766027
397830 11 18410007776220341584
4073 2 18411695475203073166
484985 159 18334286591968703143
5080951 261 17968918852183010702
5104073 3 18338221736021703472

> <PUBCHEM_SHAPE_MULTIPOLES>
669.61
17.28
5.12
1.49
40.12
5.66
-0.01
0.18
-3.57
-6.2
0.03
-1.42
-0.46
1.78

> <PUBCHEM_SHAPE_SELFOVERLAP>
1471.226

> <PUBCHEM_SHAPE_VOLUME>
358.6

> <PUBCHEM_COORDINATE_TYPE>
2
5
10

$$$$
