75536799
  -OEChem-12032416343D

 44 46  0     1  0  0  0  0  0999 V2000
    0.4177   -0.9278    0.0170 O   0  0  0  0  0  0  0  0  0  0  0  0
   -0.8241    2.4303    0.3114 O   0  0  0  0  0  0  0  0  0  0  0  0
    3.7881    2.0127    0.0004 O   0  0  0  0  0  0  0  0  0  0  0  0
   -3.0367    0.2059    0.1316 N   0  0  0  0  0  0  0  0  0  0  0  0
    2.9190    0.1038    0.9922 N   0  0  0  0  0  0  0  0  0  0  0  0
   -7.5517    0.6336   -0.6174 N   0  0  0  0  0  0  0  0  0  0  0  0
    7.5003   -1.2731   -0.6310 N   0  0  0  0  0  0  0  0  0  0  0  0
   -1.6447    0.2104   -0.2878 C   0  0  1  0  0  0  0  0  0  0  0  0
   -0.7437    1.0481    0.6007 C   0  0  1  0  0  0  0  0  0  0  0  0
    0.6239    0.4745    0.2555 C   0  0  1  0  0  0  0  0  0  0  0  0
   -0.9891   -1.1564   -0.1775 C   0  0  0  0  0  0  0  0  0  0  0  0
    1.6496    0.6620    1.3592 C   0  0  0  0  0  0  0  0  0  0  0  0
   -3.9002   -0.3187   -0.9197 C   0  0  0  0  0  0  0  0  0  0  0  0
   -5.3449   -0.3464   -0.4967 C   0  0  0  0  0  0  0  0  0  0  0  0
    3.9014    0.8356    0.3321 C   0  0  0  0  0  0  0  0  0  0  0  0
   -5.8183   -1.3236    0.3720 C   0  0  0  0  0  0  0  0  0  0  0  0
   -6.2440    0.6012   -0.9590 C   0  0  0  0  0  0  0  0  0  0  0  0
    5.1513    0.1049   -0.0011 C   0  0  0  0  0  0  0  0  0  0  0  0
   -7.1574   -1.3231    0.7467 C   0  0  0  0  0  0  0  0  0  0  0  0
    5.9230    0.5010   -1.0880 C   0  0  0  0  0  0  0  0  0  0  0  0
    5.5529   -0.9794    0.7712 C   0  0  0  0  0  0  0  0  0  0  0  0
   -7.9754   -0.3319    0.2288 C   0  0  0  0  0  0  0  0  0  0  0  0
    7.0781   -0.2146   -1.3584 C   0  0  0  0  0  0  0  0  0  0  0  0
    6.7247   -1.6289    0.4176 C   0  0  0  0  0  0  0  0  0  0  0  0
   -1.5589    0.5925   -1.3149 H   0  0  0  0  0  0  0  0  0  0  0  0
   -0.9812    0.8943    1.6607 H   0  0  0  0  0  0  0  0  0  0  0  0
    1.0043    0.9118   -0.6770 H   0  0  0  0  0  0  0  0  0  0  0  0
   -1.3472   -1.7216    0.6908 H   0  0  0  0  0  0  0  0  0  0  0  0
   -1.1360   -1.7690   -1.0721 H   0  0  0  0  0  0  0  0  0  0  0  0
    1.3359    0.1385    2.2691 H   0  0  0  0  0  0  0  0  0  0  0  0
    1.7738    1.7244    1.5950 H   0  0  0  0  0  0  0  0  0  0  0  0
   -3.3226    1.1614    0.3473 H   0  0  0  0  0  0  0  0  0  0  0  0
   -3.6088   -1.3414   -1.1907 H   0  0  0  0  0  0  0  0  0  0  0  0
   -3.8028    0.2840   -1.8320 H   0  0  0  0  0  0  0  0  0  0  0  0
   -0.6138    2.5587   -0.6290 H   0  0  0  0  0  0  0  0  0  0  0  0
    3.0519   -0.8848    1.1768 H   0  0  0  0  0  0  0  0  0  0  0  0
   -5.1534   -2.0891    0.7625 H   0  0  0  0  0  0  0  0  0  0  0  0
   -5.9355    1.3907   -1.6373 H   0  0  0  0  0  0  0  0  0  0  0  0
   -7.5485   -2.0749    1.4226 H   0  0  0  0  0  0  0  0  0  0  0  0
    5.6429    1.3382   -1.7183 H   0  0  0  0  0  0  0  0  0  0  0  0
    5.0110   -1.3194    1.6462 H   0  0  0  0  0  0  0  0  0  0  0  0
   -9.0276   -0.2876    0.4900 H   0  0  0  0  0  0  0  0  0  0  0  0
    7.7143    0.0532   -2.1955 H   0  0  0  0  0  0  0  0  0  0  0  0
    7.0856   -2.4760    0.9917 H   0  0  0  0  0  0  0  0  0  0  0  0
  1 10  1  0  0  0  0
  1 11  1  0  0  0  0
  2  9  1  0  0  0  0
  2 35  1  0  0  0  0
  3 15  2  0  0  0  0
  4  8  1  0  0  0  0
  4 13  1  0  0  0  0
  4 32  1  0  0  0  0
  5 12  1  0  0  0  0
  5 15  1  0  0  0  0
  5 36  1  0  0  0  0
  6 17  1  0  0  0  0
  6 22  2  0  0  0  0
  7 23  2  0  0  0  0
  7 24  1  0  0  0  0
  8  9  1  0  0  0  0
  8 11  1  0  0  0  0
  8 25  1  0  0  0  0
  9 10  1  0  0  0  0
  9 26  1  0  0  0  0
 10 12  1  0  0  0  0
 10 27  1  0  0  0  0
 11 28  1  0  0  0  0
 11 29  1  0  0  0  0
 12 30  1  0  0  0  0
 12 31  1  0  0  0  0
 13 14  1  0  0  0  0
 13 33  1  0  0  0  0
 13 34  1  0  0  0  0
 14 16  1  0  0  0  0
 14 17  2  0  0  0  0
 15 18  1  0  0  0  0
 16 19  2  0  0  0  0
 16 37  1  0  0  0  0
 17 38  1  0  0  0  0
 18 20  2  0  0  0  0
 18 21  1  0  0  0  0
 19 22  1  0  0  0  0
 19 39  1  0  0  0  0
 20 23  1  0  0  0  0
 20 40  1  0  0  0  0
 21 24  2  0  0  0  0
 21 41  1  0  0  0  0
 22 42  1  0  0  0  0
 23 43  1  0  0  0  0
 24 44  1  0  0  0  0
M  END
> <PUBCHEM_COMPOUND_CID>
75536799

> <PUBCHEM_CONFORMER_RMSD>
1

> <PUBCHEM_CONFORMER_DIVERSEORDER>
1
147
127
31
54
149
18
109
163
75
24
95
137
139
99
22
7
141
27
86
8
36
70
177
72
33
110
53
167
91
154
119
32
61
124
85
96
19
113
94
102
128
129
142
138
153
158
59
176
20
126
151
4
63
118
174
60
9
121
65
56
10
87
28
152
116
81
90
104
131
80
112
169
47
165
62
146
46
34
21
101
115
52
55
14
133
159
173
134
120
30
88
171
51
6
82
3
93
23
11
178
68
105
108
44
170
64
37
162
136
148
123
106
66
160
84
122
67
50
43
26
45
125
100
25
175
69
172
76
79
5
35
38
150
57
130
114
117
103
41
144
145
97
29
13
77
132
168
17
135
71
140
2
98
166
161
157
156
73
143
15
83
74
42
92
39
155
40
49
16
111
78
12
58
89
107
48
164

> <PUBCHEM_MMFF94_PARTIAL_CHARGES>
35
1 -0.56
10 0.28
11 0.28
12 0.3
13 0.41
14 -0.14
15 0.54
16 -0.15
17 0.16
18 0.09
19 -0.15
2 -0.68
20 -0.15
21 -0.15
22 0.16
23 0.16
24 0.16
3 -0.57
32 0.36
35 0.4
36 0.37
37 0.15
38 0.15
39 0.15
4 -0.9
40 0.15
41 0.15
42 0.15
43 0.15
44 0.15
5 -0.73
6 -0.62
7 -0.62
8 0.27
9 0.28

> <PUBCHEM_EFFECTIVE_ROTOR_COUNT>
8

> <PUBCHEM_PHARMACOPHORE_FEATURES>
12
1 1 acceptor
1 2 acceptor
1 2 donor
1 3 acceptor
1 4 cation
1 4 donor
1 5 donor
1 6 acceptor
1 7 acceptor
5 1 8 9 10 11 rings
6 6 14 16 17 19 22 rings
6 7 18 20 21 23 24 rings

> <PUBCHEM_HEAVY_ATOM_COUNT>
24

> <PUBCHEM_ATOM_DEF_STEREO_COUNT>
3

> <PUBCHEM_ATOM_UDEF_STEREO_COUNT>
0

> <PUBCHEM_BOND_DEF_STEREO_COUNT>
0

> <PUBCHEM_BOND_UDEF_STEREO_COUNT>
0

> <PUBCHEM_ISOTOPIC_ATOM_COUNT>
0

> <PUBCHEM_COMPONENT_COUNT>
1

> <PUBCHEM_CACTVS_TAUTO_COUNT>
2

> <PUBCHEM_CONFORMER_ID>
0480999F00000001

> <PUBCHEM_MMFF94_ENERGY>
57.6752

> <PUBCHEM_FEATURE_SELFOVERLAP>
60.898

> <PUBCHEM_SHAPE_FINGERPRINT>
10 15 10592041366831992800
10162869 55 8934707869586404433
10299344 5 18113899355772951547
106641 1 8718820998934484317
11315181 36 14851604385230336365
11524674 6 17346878975027350687
11638347 137 11959738166137713764
12166972 35 18113057155430592852
13533116 47 16370991976232976720
13673619 4 17917710193088623696
13685833 64 17775566442599049914
13885169 127 14549024260674710307
14216079 64 17775005665741045934
14251752 14 18341609304754235317
14251764 18 11743834768213806977
14294032 229 18124040035621437049
14347424 109 15410888583468680362
14856354 85 18040156241165484591
14933364 13 18040151825316436733
15131766 46 12893628227208071482
15183329 4 17846499231408926895
15352257 5 18408886256573882243
15849732 13 17748828531213721983
16090146 7 16733562536608933064
17093844 174 12751240312159798231
21150785 3 16950284009542859966
21267235 1 18412546509032942832
21365058 27 15936408940561397731
21781051 124 18409736196136455938
21792961 116 18337383851899469141
220451 1 16805313401805567323
221357 26 17821445747402034324
22224240 67 13183019613938194772
23035841 295 18272368689824667531
23081809 10 14635134708395249113
23559900 14 18200584933995321152
246663 6 18272654545124733658
24771293 8 11674876671653738095
28498 318 17775286040783953605
3004659 81 18413387649088559816
328311 84 18412546526576867211
34797466 226 16370727028306264094
4107672 100 17967808315717363469
444769 64 17775565360378594239
445580 37 17603580790891197549
5207 217 13695586655030599593
5758199 1 13839982197255067601
59682541 35 9799683797101612142
59755656 215 18272651225167898167
6394761 36 17846780706918328899
6438161 24 18261385621436848346

> <PUBCHEM_SHAPE_MULTIPOLES>
456.38
25.48
1.55
1.06
8.93
0.28
0.06
-8.15
4.78
-0.7
-0.22
-0.67
0.04
0.49

> <PUBCHEM_SHAPE_SELFOVERLAP>
967.381

> <PUBCHEM_SHAPE_VOLUME>
252.6

> <PUBCHEM_COORDINATE_TYPE>
2
5
10

$$$$
