56774370
  -OEChem-12032416323D

 55 58  0     1  0  0  0  0  0999 V2000
    2.4098   -1.9306    1.2871 O   0  0  0  0  0  0  0  0  0  0  0  0
    6.4384    2.3967    0.2145 O   0  0  0  0  0  0  0  0  0  0  0  0
   -4.3674    0.2674    0.8011 N   0  0  0  0  0  0  0  0  0  0  0  0
    1.0316   -2.0327    1.1415 N   0  0  0  0  0  0  0  0  0  0  0  0
    4.8293    0.0835   -0.1870 N   0  0  0  0  0  0  0  0  0  0  0  0
   -2.6529   -0.0118   -0.9712 C   0  0  0  0  0  0  0  0  0  0  0  0
   -3.0474    0.6995    0.3398 C   0  0  2  0  0  0  0  0  0  0  0  0
   -1.2688   -0.2540   -0.3335 C   0  0  1  0  0  0  0  0  0  0  0  0
   -1.9687   -0.1546    1.0380 C   0  0  0  0  0  0  0  0  0  0  0  0
   -0.5973   -1.6055   -0.6116 C   0  0  0  0  0  0  0  0  0  0  0  0
   -6.7309    0.8628    0.8670 C   0  0  0  0  0  0  0  0  0  0  0  0
   -3.3923   -1.2829   -1.3303 C   0  0  0  0  0  0  0  0  0  0  0  0
   -2.6722    0.9314   -2.1620 C   0  0  0  0  0  0  0  0  0  0  0  0
   -5.3493    1.3055    0.5090 C   0  0  0  0  0  0  0  0  0  0  0  0
   -7.8949    1.3798    0.0737 C   0  0  0  0  0  0  0  0  0  0  0  0
   -7.4712   -0.0533   -0.0624 C   0  0  0  0  0  0  0  0  0  0  0  0
    0.7850   -1.6256   -0.1070 C   0  0  0  0  0  0  0  0  0  0  0  0
    1.9572   -1.2580   -0.7899 C   0  0  0  0  0  0  0  0  0  0  0  0
    2.9497   -1.4682    0.1306 C   0  0  0  0  0  0  0  0  0  0  0  0
    4.4452   -1.2951    0.1090 C   0  0  0  0  0  0  0  0  0  0  0  0
    6.2168    0.1471   -0.6668 C   0  0  0  0  0  0  0  0  0  0  0  0
    4.6669    0.9364    0.9985 C   0  0  0  0  0  0  0  0  0  0  0  0
    6.5989    1.5957   -0.9568 C   0  0  0  0  0  0  0  0  0  0  0  0
    5.0847    2.3665    0.6685 C   0  0  0  0  0  0  0  0  0  0  0  0
   -2.8335    1.7743    0.4003 H   0  0  0  0  0  0  0  0  0  0  0  0
   -0.5842    0.5886   -0.5178 H   0  0  0  0  0  0  0  0  0  0  0  0
   -2.3061   -1.1138    1.4510 H   0  0  0  0  0  0  0  0  0  0  0  0
   -1.3952    0.3641    1.8128 H   0  0  0  0  0  0  0  0  0  0  0  0
   -4.4002    0.0662    1.8010 H   0  0  0  0  0  0  0  0  0  0  0  0
   -0.5661   -1.7729   -1.6960 H   0  0  0  0  0  0  0  0  0  0  0  0
   -1.1682   -2.4393   -0.1859 H   0  0  0  0  0  0  0  0  0  0  0  0
   -6.8697    0.7269    1.9329 H   0  0  0  0  0  0  0  0  0  0  0  0
   -4.4251   -1.0694   -1.6313 H   0  0  0  0  0  0  0  0  0  0  0  0
   -3.4442   -2.0012   -0.5048 H   0  0  0  0  0  0  0  0  0  0  0  0
   -2.9227   -1.7940   -2.1787 H   0  0  0  0  0  0  0  0  0  0  0  0
   -3.6967    1.1935   -2.4478 H   0  0  0  0  0  0  0  0  0  0  0  0
   -2.1870    0.4755   -3.0323 H   0  0  0  0  0  0  0  0  0  0  0  0
   -2.1415    1.8660   -1.9480 H   0  0  0  0  0  0  0  0  0  0  0  0
   -5.1183    2.2138    1.0790 H   0  0  0  0  0  0  0  0  0  0  0  0
   -5.3060    1.5715   -0.5545 H   0  0  0  0  0  0  0  0  0  0  0  0
   -7.7059    2.0425   -0.7618 H   0  0  0  0  0  0  0  0  0  0  0  0
   -8.8161    1.5843    0.6057 H   0  0  0  0  0  0  0  0  0  0  0  0
   -8.1071   -0.8114    0.3784 H   0  0  0  0  0  0  0  0  0  0  0  0
   -6.9978   -0.3512   -0.9898 H   0  0  0  0  0  0  0  0  0  0  0  0
    2.0667   -0.8942   -1.8009 H   0  0  0  0  0  0  0  0  0  0  0  0
    4.8110   -1.9639   -0.6819 H   0  0  0  0  0  0  0  0  0  0  0  0
    4.8915   -1.6524    1.0460 H   0  0  0  0  0  0  0  0  0  0  0  0
    6.3308   -0.4377   -1.5867 H   0  0  0  0  0  0  0  0  0  0  0  0
    6.8982   -0.2675    0.0876 H   0  0  0  0  0  0  0  0  0  0  0  0
    5.2843    0.5618    1.8256 H   0  0  0  0  0  0  0  0  0  0  0  0
    3.6237    0.9484    1.3335 H   0  0  0  0  0  0  0  0  0  0  0  0
    5.9993    2.0167   -1.7731 H   0  0  0  0  0  0  0  0  0  0  0  0
    7.6504    1.6510   -1.2560 H   0  0  0  0  0  0  0  0  0  0  0  0
    5.0212    2.9899    1.5661 H   0  0  0  0  0  0  0  0  0  0  0  0
    4.4330    2.8132   -0.0924 H   0  0  0  0  0  0  0  0  0  0  0  0
  1  4  1  0  0  0  0
  1 19  1  0  0  0  0
  2 23  1  0  0  0  0
  2 24  1  0  0  0  0
  3  7  1  0  0  0  0
  3 14  1  0  0  0  0
  3 29  1  0  0  0  0
  4 17  2  0  0  0  0
  5 20  1  0  0  0  0
  5 21  1  0  0  0  0
  5 22  1  0  0  0  0
  6  7  1  0  0  0  0
  6  8  1  0  0  0  0
  6 12  1  0  0  0  0
  6 13  1  0  0  0  0
  7  9  1  0  0  0  0
  7 25  1  0  0  0  0
  8  9  1  0  0  0  0
  8 10  1  0  0  0  0
  8 26  1  0  0  0  0
  9 27  1  0  0  0  0
  9 28  1  0  0  0  0
 10 17  1  0  0  0  0
 10 30  1  0  0  0  0
 10 31  1  0  0  0  0
 11 14  1  0  0  0  0
 11 15  1  0  0  0  0
 11 16  1  0  0  0  0
 11 32  1  0  0  0  0
 12 33  1  0  0  0  0
 12 34  1  0  0  0  0
 12 35  1  0  0  0  0
 13 36  1  0  0  0  0
 13 37  1  0  0  0  0
 13 38  1  0  0  0  0
 14 39  1  0  0  0  0
 14 40  1  0  0  0  0
 15 16  1  0  0  0  0
 15 41  1  0  0  0  0
 15 42  1  0  0  0  0
 16 43  1  0  0  0  0
 16 44  1  0  0  0  0
 17 18  1  0  0  0  0
 18 19  2  0  0  0  0
 18 45  1  0  0  0  0
 19 20  1  0  0  0  0
 20 46  1  0  0  0  0
 20 47  1  0  0  0  0
 21 23  1  0  0  0  0
 21 48  1  0  0  0  0
 21 49  1  0  0  0  0
 22 24  1  0  0  0  0
 22 50  1  0  0  0  0
 22 51  1  0  0  0  0
 23 52  1  0  0  0  0
 23 53  1  0  0  0  0
 24 54  1  0  0  0  0
 24 55  1  0  0  0  0
M  END
> <PUBCHEM_COMPOUND_CID>
56774370

> <PUBCHEM_CONFORMER_RMSD>
1

> <PUBCHEM_CONFORMER_DIVERSEORDER>
2
108
30
45
75
73
135
83
133
112
132
115
101
25
74
59
39
118
116
19
51
97
114
109
28
55
38
71
121
85
134
32
84
40
89
27
130
142
95
61
3
67
14
72
104
103
8
82
31
76
111
54
128
125
44
93
15
50
46
21
58
124
88
90
141
37
11
77
123
16
106
70
1
78
138
107
69
81
66
92
56
113
17
23
143
47
139
119
5
131
9
127
100
65
105
120
122
34
136
24
68
80
41
26
102
94
29
18
22
129
42
98
117
10
86
63
99
64
137
79
4
110
6
126
33
49
87
60
96
62
140
91
57
43
48
12
53
36
52
35
7
20
13

> <PUBCHEM_MMFF94_PARTIAL_CHARGES>
26
1 -0.02
10 0.18
11 -0.19
14 0.37
15 -0.2
16 -0.2
17 0.11
18 -0.15
19 -0.04
2 -0.56
20 0.45
21 0.27
22 0.27
23 0.28
24 0.28
29 0.36
3 -0.84
32 0.1
4 -0.41
41 0.1
42 0.1
43 0.1
44 0.1
45 0.15
5 -0.81
7 0.21

> <PUBCHEM_EFFECTIVE_ROTOR_COUNT>
9.6

> <PUBCHEM_PHARMACOPHORE_FEATURES>
9
1 2 acceptor
1 3 cation
1 3 donor
1 4 acceptor
1 5 cation
3 6 12 13 hydrophobe
4 6 7 8 9 rings
5 1 4 17 18 19 rings
6 2 5 21 22 23 24 rings

> <PUBCHEM_HEAVY_ATOM_COUNT>
24

> <PUBCHEM_ATOM_DEF_STEREO_COUNT>
2

> <PUBCHEM_ATOM_UDEF_STEREO_COUNT>
0

> <PUBCHEM_BOND_DEF_STEREO_COUNT>
0

> <PUBCHEM_BOND_UDEF_STEREO_COUNT>
0

> <PUBCHEM_ISOTOPIC_ATOM_COUNT>
0

> <PUBCHEM_COMPONENT_COUNT>
1

> <PUBCHEM_CACTVS_TAUTO_COUNT>
1

> <PUBCHEM_CONFORMER_ID>
03624EE200000002

> <PUBCHEM_MMFF94_ENERGY>
49.2116

> <PUBCHEM_FEATURE_SELFOVERLAP>
45.671

> <PUBCHEM_SHAPE_FINGERPRINT>
10 15 16805608083590409108
10670039 82 16128384726953012857
10753850 27 9727637185310675964
11273773 42 18272366528907790685
11273773 46 12463577283058966917
11991303 11 16558740227101370117
125118 31 18337392630702410937
13533116 47 17531806827270722723
13685833 64 9079115548776533880
13899415 154 17203608177442149857
13914758 101 8574438634239587071
13955234 65 18115018581570369746
14251732 16 18409167710570894563
14429380 56 18411408510789043429
14461889 52 17749118806900175883
14565420 104 18040715857607249258
14840074 17 18342175565958981333
15183329 4 13398633831370877399
15188451 53 11746932096801142526
15475509 8 13254801231169500211
15510800 12 9799416663353648476
15575132 122 18129945576982283265
16760501 71 18409450297432730605
17857418 61 11746941983705179017
18335252 114 18131354086011067444
193927 3 10159706837050661510
19784866 240 9511458926966098099
20465049 17 13326848924764232069
21033648 29 17458617891986911974
21150785 3 17418093213834573429
21304304 249 10665224848240586952
21307412 95 12391516420376827212
21315764 119 15554457283884515340
22079108 93 18259985959528555435
2215653 11 12247677179659481221
22224240 67 17748829622309455787
22849339 104 14764052506702238709
23559900 14 11455587895499211495
2838139 119 18341324561887700076
28498 318 9439405710053505603
3004659 81 11167938044111709502
328311 84 12247672782472806717
3472631 163 18131072649251076500
34797466 226 17918000446983151317
44317340 157 17632293514737100296
444735 82 18261960661217169349
445580 126 18412535523377051224
445580 167 18131060559466686541
445580 37 17060342912123570083
5104073 3 17024016060762965481
59682541 35 18041007245969495145
6438161 24 12175623936998515428
8988823 20 11458434548378520182

> <PUBCHEM_SHAPE_MULTIPOLES>
467.23
20.95
2.23
1.31
9.18
0.28
0.36
14.48
-0.72
-3.09
-0.26
0.38
-0.01
-0.72

> <PUBCHEM_SHAPE_SELFOVERLAP>
967.515

> <PUBCHEM_SHAPE_VOLUME>
271

> <PUBCHEM_COORDINATE_TYPE>
2
5
10

$$$$
