75536974
  -OEChem-12032416333D

 46 49  0     1  0  0  0  0  0999 V2000
   -3.7328   -0.7961    0.7925 S   0  0  0  0  0  0  0  0  0  0  0  0
    2.1949   -2.0943   -2.0267 O   0  0  0  0  0  0  0  0  0  0  0  0
   -3.7958   -0.7118    2.2353 O   0  0  0  0  0  0  0  0  0  0  0  0
   -4.7839   -1.4403    0.0355 O   0  0  0  0  0  0  0  0  0  0  0  0
    0.3544   -2.0573   -0.5670 N   0  0  0  0  0  0  0  0  0  0  0  0
   -2.2258   -1.4749    0.3385 N   0  0  2  0  0  0  0  0  0  0  0  0
    2.3888   -1.6034    0.2713 N   0  0  0  0  0  0  0  0  0  0  0  0
    4.7270    2.2267    1.2503 N   0  0  0  0  0  0  0  0  0  0  0  0
    0.1372   -1.9205    0.8606 C   0  0  2  0  0  0  0  0  0  0  0  0
   -1.0453   -0.9973    1.1332 C   0  0  0  0  0  0  0  0  0  0  0  0
    1.4772   -1.4095    1.3853 C   0  0  0  0  0  0  0  0  0  0  0  0
   -0.7595   -2.3897   -1.4333 C   0  0  0  0  0  0  0  0  0  0  0  0
   -1.9433   -1.4749   -1.1359 C   0  0  0  0  0  0  0  0  0  0  0  0
    1.7074   -1.9413   -0.9145 C   0  0  0  0  0  0  0  0  0  0  0  0
    3.8057   -1.3377    0.3862 C   0  0  0  0  0  0  0  0  0  0  0  0
   -3.5341    0.8408    0.1628 C   0  0  0  0  0  0  0  0  0  0  0  0
    4.1184    0.1222    0.2278 C   0  0  0  0  0  0  0  0  0  0  0  0
   -3.9304    1.1393   -1.1408 C   0  0  0  0  0  0  0  0  0  0  0  0
   -2.9776    1.8349    0.9674 C   0  0  0  0  0  0  0  0  0  0  0  0
    4.0965    0.7281   -1.0235 C   0  0  0  0  0  0  0  0  0  0  0  0
    4.4368    0.9083    1.3235 C   0  0  0  0  0  0  0  0  0  0  0  0
   -3.7701    2.4320   -1.6400 C   0  0  0  0  0  0  0  0  0  0  0  0
   -2.8174    3.1276    0.4685 C   0  0  0  0  0  0  0  0  0  0  0  0
    4.3895    2.0823   -1.1393 C   0  0  0  0  0  0  0  0  0  0  0  0
   -3.2134    3.4261   -0.8353 C   0  0  0  0  0  0  0  0  0  0  0  0
    4.6957    2.7808    0.0176 C   0  0  0  0  0  0  0  0  0  0  0  0
   -0.0658   -2.9272    1.2480 H   0  0  0  0  0  0  0  0  0  0  0  0
   -1.2673   -1.0117    2.2046 H   0  0  0  0  0  0  0  0  0  0  0  0
   -0.7980    0.0282    0.8373 H   0  0  0  0  0  0  0  0  0  0  0  0
    1.4538   -0.3440    1.6358 H   0  0  0  0  0  0  0  0  0  0  0  0
    1.8208   -1.9807    2.2530 H   0  0  0  0  0  0  0  0  0  0  0  0
   -1.0219   -3.4345   -1.2317 H   0  0  0  0  0  0  0  0  0  0  0  0
   -0.4500   -2.3120   -2.4801 H   0  0  0  0  0  0  0  0  0  0  0  0
   -1.6921   -0.4617   -1.4667 H   0  0  0  0  0  0  0  0  0  0  0  0
   -2.8148   -1.8301   -1.6941 H   0  0  0  0  0  0  0  0  0  0  0  0
    4.3317   -1.8982   -0.3962 H   0  0  0  0  0  0  0  0  0  0  0  0
    4.1576   -1.7245    1.3493 H   0  0  0  0  0  0  0  0  0  0  0  0
   -4.3647    0.3814   -1.7864 H   0  0  0  0  0  0  0  0  0  0  0  0
   -2.6587    1.6246    1.9843 H   0  0  0  0  0  0  0  0  0  0  0  0
    3.8584    0.1575   -1.9164 H   0  0  0  0  0  0  0  0  0  0  0  0
    4.4682    0.4941    2.3265 H   0  0  0  0  0  0  0  0  0  0  0  0
   -4.0778    2.6644   -2.6552 H   0  0  0  0  0  0  0  0  0  0  0  0
   -2.3830    3.9016    1.0945 H   0  0  0  0  0  0  0  0  0  0  0  0
    4.3796    2.5754   -2.1046 H   0  0  0  0  0  0  0  0  0  0  0  0
   -3.0881    4.4324   -1.2240 H   0  0  0  0  0  0  0  0  0  0  0  0
    4.9317    3.8392   -0.0189 H   0  0  0  0  0  0  0  0  0  0  0  0
  1  3  2  0  0  0  0
  1  4  2  0  0  0  0
  1  6  1  0  0  0  0
  1 16  1  0  0  0  0
  2 14  2  0  0  0  0
  5  9  1  0  0  0  0
  5 12  1  0  0  0  0
  5 14  1  0  0  0  0
  6 10  1  0  0  0  0
  6 13  1  0  0  0  0
  7 11  1  0  0  0  0
  7 14  1  0  0  0  0
  7 15  1  0  0  0  0
  8 21  1  0  0  0  0
  8 26  2  0  0  0  0
  9 10  1  0  0  0  0
  9 11  1  0  0  0  0
  9 27  1  0  0  0  0
 10 28  1  0  0  0  0
 10 29  1  0  0  0  0
 11 30  1  0  0  0  0
 11 31  1  0  0  0  0
 12 13  1  0  0  0  0
 12 32  1  0  0  0  0
 12 33  1  0  0  0  0
 13 34  1  0  0  0  0
 13 35  1  0  0  0  0
 15 17  1  0  0  0  0
 15 36  1  0  0  0  0
 15 37  1  0  0  0  0
 16 18  2  0  0  0  0
 16 19  1  0  0  0  0
 17 20  1  0  0  0  0
 17 21  2  0  0  0  0
 18 22  1  0  0  0  0
 18 38  1  0  0  0  0
 19 23  2  0  0  0  0
 19 39  1  0  0  0  0
 20 24  2  0  0  0  0
 20 40  1  0  0  0  0
 21 41  1  0  0  0  0
 22 25  2  0  0  0  0
 22 42  1  0  0  0  0
 23 25  1  0  0  0  0
 23 43  1  0  0  0  0
 24 26  1  0  0  0  0
 24 44  1  0  0  0  0
 25 45  1  0  0  0  0
 26 46  1  0  0  0  0
M  END
> <PUBCHEM_COMPOUND_CID>
75536974

> <PUBCHEM_CONFORMER_RMSD>
0.8

> <PUBCHEM_CONFORMER_DIVERSEORDER>
1
141
42
119
142
97
77
84
46
117
58
70
49
69
71
31
104
65
36
18
112
138
134
137
128
55
91
107
144
33
111
56
136
143
82
109
57
60
132
95
39
131
6
88
75
108
59
66
68
122
47
94
92
34
123
52
62
106
40
102
16
9
81
30
120
67
85
86
63
135
12
83
76
105
73
129
101
24
72
35
110
11
89
20
113
126
74
48
21
90
8
37
14
80
32
115
41
38
78
98
50
45
44
114
27
19
124
53
103
125
99
22
43
25
64
51
130
13
121
118
116
26
127
23
2
15
79
10
133
100
93
140
96
7
139
54
3
28
29
87
61
17
5
4

> <PUBCHEM_MMFF94_PARTIAL_CHARGES>
35
1 1.45
10 0.36
11 0.3
12 0.3
13 0.36
14 0.69
15 0.44
16 -0.01
17 -0.14
18 -0.15
19 -0.15
2 -0.57
20 -0.15
21 0.16
22 -0.15
23 -0.15
24 -0.15
25 -0.15
26 0.16
3 -0.65
38 0.15
39 0.15
4 -0.65
40 0.15
41 0.15
42 0.15
43 0.15
44 0.15
45 0.15
46 0.15
5 -0.66
6 -0.85
7 -0.66
8 -0.62
9 0.3

> <PUBCHEM_EFFECTIVE_ROTOR_COUNT>
5.2

> <PUBCHEM_PHARMACOPHORE_FEATURES>
8
1 2 acceptor
1 3 acceptor
1 4 acceptor
1 8 acceptor
5 5 7 9 11 14 rings
6 16 18 19 22 23 25 rings
6 5 6 9 10 12 13 rings
6 8 17 20 21 24 26 rings

> <PUBCHEM_HEAVY_ATOM_COUNT>
26

> <PUBCHEM_ATOM_DEF_STEREO_COUNT>
1

> <PUBCHEM_ATOM_UDEF_STEREO_COUNT>
0

> <PUBCHEM_BOND_DEF_STEREO_COUNT>
0

> <PUBCHEM_BOND_UDEF_STEREO_COUNT>
0

> <PUBCHEM_ISOTOPIC_ATOM_COUNT>
0

> <PUBCHEM_COMPONENT_COUNT>
1

> <PUBCHEM_CACTVS_TAUTO_COUNT>
1

> <PUBCHEM_CONFORMER_ID>
04809A4E00000001

> <PUBCHEM_MMFF94_ENERGY>
54.5732

> <PUBCHEM_FEATURE_SELFOVERLAP>
40.714

> <PUBCHEM_SHAPE_FINGERPRINT>
10498660 4 18342172237353590729
10670039 82 18335434499377622084
10928967 22 8429729739301241568
11135609 149 16843624678001153508
12403259 118 18335970978998964730
12596602 18 16516246382909396160
12978246 48 18336827601700033636
13103583 49 12397154587360284661
13583140 156 18116438033511328635
14251751 93 18410852195979845441
14251757 17 17917709136658498880
14251764 38 18337110060002449196
14739800 52 18115010935942110843
14840074 17 18269005339505466721
14848178 5 9367077631601798868
14848178 96 18335980870398597068
14950920 106 17385995187632229490
14957384 54 18191014621404249994
15163728 17 18270412688809127262
15575132 122 18410575127929529581
15961568 22 18335988669742624397
17868525 174 18044930170065799258
17974551 9 15073944090638672485
20764821 26 18054496174214386976
21033648 144 18200032975258712342
21095088 737 18339912749960246821
21315764 268 18262515896997064565
21475661 188 18188205386527905052
21623110 236 18410015420972140553
21641784 216 17914039056881040431
21860390 5 17982447097217140646
21864079 5 18408597067914321042
22907989 373 18060125523814192847
22956985 138 16310788556536502963
23227448 37 18270116953923892806
23398203 216 17981907245625237529
23559900 14 18054505803330376970
2838139 119 18265601113903369157
341906 21 17967538951862300062
3459 39 17843662573915938736
44062 13 11095888163750688161
497634 4 17632306700413637507
5081480 168 17415026585351717220
5486654 36 8141819325628171662
6086070 43 18121214286210489430
6608658 132 17979070814819794980

> <PUBCHEM_SHAPE_MULTIPOLES>
501.39
11.3
3.98
1.71
5.46
2.42
-0.07
8.01
0.7
-0.68
-0.84
-0.26
-0.27
1.14

> <PUBCHEM_SHAPE_SELFOVERLAP>
1066.19

> <PUBCHEM_SHAPE_VOLUME>
280.4

> <PUBCHEM_COORDINATE_TYPE>
2
5
10

$$$$
