75368407
  -OEChem-12032416383D

 37 39  0     1  0  0  0  0  0999 V2000
   -5.1684   -0.0061   -0.3201 O   0  0  0  0  0  0  0  0  0  0  0  0
    1.3312   -2.5719   -0.5908 O   0  0  0  0  0  0  0  0  0  0  0  0
    1.8427    0.4877   -1.8669 O   0  0  0  0  0  0  0  0  0  0  0  0
   -2.8198   -0.0977   -0.1952 N   0  0  0  0  0  0  0  0  0  0  0  0
   -0.3070   -1.1696    0.3091 N   0  0  0  0  0  0  0  0  0  0  0  0
   -3.8761    1.7061    0.6304 N   0  0  0  0  0  0  0  0  0  0  0  0
   -1.7530    0.8081    0.1955 C   0  0  2  0  0  0  0  0  0  0  0  0
   -0.7040    0.0640    1.0155 C   0  0  0  0  0  0  0  0  0  0  0  0
   -2.4818    1.9196    0.9442 C   0  0  0  0  0  0  0  0  0  0  0  0
   -2.4979   -1.3760   -0.8053 C   0  0  0  0  0  0  0  0  0  0  0  0
   -1.4163   -2.0854    0.0077 C   0  0  0  0  0  0  0  0  0  0  0  0
   -4.0853    0.4689   -0.0066 C   0  0  0  0  0  0  0  0  0  0  0  0
    0.9976   -1.5259   -0.0362 C   0  0  0  0  0  0  0  0  0  0  0  0
    2.0773   -0.5784    0.2691 C   0  0  0  0  0  0  0  0  0  0  0  0
    2.4601    0.3931   -0.6555 C   0  0  0  0  0  0  0  0  0  0  0  0
    2.7235   -0.6603    1.5025 C   0  0  0  0  0  0  0  0  0  0  0  0
    3.4891    1.2827   -0.3469 C   0  0  0  0  0  0  0  0  0  0  0  0
    3.7526    0.2293    1.8112 C   0  0  0  0  0  0  0  0  0  0  0  0
    4.1354    1.2009    0.8866 C   0  0  0  0  0  0  0  0  0  0  0  0
    2.3000    1.5112   -2.7484 C   0  0  0  0  0  0  0  0  0  0  0  0
   -1.3106    1.1944   -0.7317 H   0  0  0  0  0  0  0  0  0  0  0  0
    0.1472    0.7179    1.2157 H   0  0  0  0  0  0  0  0  0  0  0  0
   -1.1104   -0.2507    1.9848 H   0  0  0  0  0  0  0  0  0  0  0  0
   -2.1817    2.9167    0.6110 H   0  0  0  0  0  0  0  0  0  0  0  0
   -2.3687    1.8519    2.0306 H   0  0  0  0  0  0  0  0  0  0  0  0
   -2.1349   -1.1626   -1.8171 H   0  0  0  0  0  0  0  0  0  0  0  0
   -3.4020   -1.9868   -0.8876 H   0  0  0  0  0  0  0  0  0  0  0  0
   -1.8220   -2.4202    0.9699 H   0  0  0  0  0  0  0  0  0  0  0  0
   -1.0616   -2.9704   -0.5296 H   0  0  0  0  0  0  0  0  0  0  0  0
   -4.6263    2.3320    0.9058 H   0  0  0  0  0  0  0  0  0  0  0  0
    2.4336   -1.4131    2.2311 H   0  0  0  0  0  0  0  0  0  0  0  0
    3.8410    2.0625   -1.0133 H   0  0  0  0  0  0  0  0  0  0  0  0
    4.2556    0.1656    2.7717 H   0  0  0  0  0  0  0  0  0  0  0  0
    4.9368    1.8931    1.1283 H   0  0  0  0  0  0  0  0  0  0  0  0
    1.6990    1.4413   -3.6611 H   0  0  0  0  0  0  0  0  0  0  0  0
    3.3432    1.3545   -3.0434 H   0  0  0  0  0  0  0  0  0  0  0  0
    2.1281    2.5096   -2.3320 H   0  0  0  0  0  0  0  0  0  0  0  0
  1 12  2  0  0  0  0
  2 13  2  0  0  0  0
  3 15  1  0  0  0  0
  3 20  1  0  0  0  0
  4  7  1  0  0  0  0
  4 10  1  0  0  0  0
  4 12  1  0  0  0  0
  5  8  1  0  0  0  0
  5 11  1  0  0  0  0
  5 13  1  0  0  0  0
  6  9  1  0  0  0  0
  6 12  1  0  0  0  0
  6 30  1  0  0  0  0
  7  8  1  0  0  0  0
  7  9  1  0  0  0  0
  7 21  1  0  0  0  0
  8 22  1  0  0  0  0
  8 23  1  0  0  0  0
  9 24  1  0  0  0  0
  9 25  1  0  0  0  0
 10 11  1  0  0  0  0
 10 26  1  0  0  0  0
 10 27  1  0  0  0  0
 11 28  1  0  0  0  0
 11 29  1  0  0  0  0
 13 14  1  0  0  0  0
 14 15  1  0  0  0  0
 14 16  2  0  0  0  0
 15 17  2  0  0  0  0
 16 18  1  0  0  0  0
 16 31  1  0  0  0  0
 17 19  1  0  0  0  0
 17 32  1  0  0  0  0
 18 19  2  0  0  0  0
 18 33  1  0  0  0  0
 19 34  1  0  0  0  0
 20 35  1  0  0  0  0
 20 36  1  0  0  0  0
 20 37  1  0  0  0  0
M  END
> <PUBCHEM_COMPOUND_CID>
75368407

> <PUBCHEM_CONFORMER_RMSD>
0.6

> <PUBCHEM_CONFORMER_DIVERSEORDER>
1
33
10
24
32
14
20
31
28
9
21
2
12
23
30
29
15
22
25
27
16
18
11
3
19
17
5
4
13
8
6
26
7

> <PUBCHEM_MMFF94_PARTIAL_CHARGES>
25
1 -0.57
10 0.3
11 0.3
12 0.69
13 0.54
14 0.09
15 0.08
16 -0.15
17 -0.15
18 -0.15
19 -0.15
2 -0.57
20 0.28
3 -0.36
30 0.37
31 0.15
32 0.15
33 0.15
34 0.15
4 -0.66
5 -0.66
6 -0.73
7 0.3
8 0.3
9 0.3

> <PUBCHEM_EFFECTIVE_ROTOR_COUNT>
4.2

> <PUBCHEM_PHARMACOPHORE_FEATURES>
7
1 1 acceptor
1 2 acceptor
1 3 acceptor
1 6 donor
5 4 6 7 9 12 rings
6 14 15 16 17 18 19 rings
6 4 5 7 8 10 11 rings

> <PUBCHEM_HEAVY_ATOM_COUNT>
20

> <PUBCHEM_ATOM_DEF_STEREO_COUNT>
1

> <PUBCHEM_ATOM_UDEF_STEREO_COUNT>
0

> <PUBCHEM_BOND_DEF_STEREO_COUNT>
0

> <PUBCHEM_BOND_UDEF_STEREO_COUNT>
0

> <PUBCHEM_ISOTOPIC_ATOM_COUNT>
0

> <PUBCHEM_COMPONENT_COUNT>
1

> <PUBCHEM_CACTVS_TAUTO_COUNT>
2

> <PUBCHEM_CONFORMER_ID>
047E07D700000001

> <PUBCHEM_MMFF94_ENERGY>
64.6944

> <PUBCHEM_FEATURE_SELFOVERLAP>
35.62

> <PUBCHEM_SHAPE_FINGERPRINT>
10498660 4 18273495693147754305
10646746 165 18201433701374402304
11140007 195 13479129081861199821
11582403 64 16126649766735763466
11640471 11 18115316703528322796
11725454 13 16629373987851414530
12173636 292 18058165030099615677
12236239 1 18114454652273733312
12403814 3 18040424495873954229
12633257 1 15792007943697060944
12670546 177 16486964137751339053
12788726 201 17610913661048330386
13134695 92 16733254708224505924
13583140 156 16443355303344137465
13965767 371 18188198789558637936
14251739 40 17095235925898959931
14739800 52 17910374411192376696
15635459 17 16773798108054871417
17349148 13 18260824904037933651
17357779 13 14042887305278511589
17357990 137 18113910393960026926
17980427 23 18263910206938458164
1813 80 17533213069142700450
18186145 218 17631461068275773073
18981168 100 18121250694595042354
192875 21 17749104478636165541
20645477 70 15410901751484910180
20715895 44 17753030732186647429
21756936 100 16520504869254363852
22149856 69 18269855181196637091
23175994 123 15719662165916683912
23184049 59 17894904118762722290
23402539 116 17916854842051203816
235170 7 16056875823719916741
23557571 272 17702949286857252167
23559900 14 18060139847508980318
238 59 15195572299089872660
3060560 45 14836113382390416808
31174 14 15792023293461504620
3472631 163 18202560704803620361
3797600 57 17318770067283374528
4340502 62 17458063734396113171
474 4 17894915139269021666
5104073 3 18270120094257104659
5262128 65 16558488412767988416
633830 44 16486418651509665049
7364860 26 17987517005341466782
960060 61 12751234779535195321
9981440 41 18341322375016617866

> <PUBCHEM_SHAPE_MULTIPOLES>
379.04
8.31
2.09
1.69
4.56
0.58
-0.79
-3.38
1.41
0.31
-0.33
-1.9
-0.73
-1.22

> <PUBCHEM_SHAPE_SELFOVERLAP>
811.293

> <PUBCHEM_SHAPE_VOLUME>
209.3

> <PUBCHEM_COORDINATE_TYPE>
2
5
10

$$$$
