51137721
  -OEChem-12032416383D

 39 41  0     1  0  0  0  0  0999 V2000
   -4.5372    0.3474   -0.0503 O   0  0  0  0  0  0  0  0  0  0  0  0
    1.1924   -1.6844    1.6658 O   0  0  0  0  0  0  0  0  0  0  0  0
   -0.4683   -1.6811    0.0656 N   0  0  0  0  0  0  0  0  0  0  0  0
    1.7856   -1.5884   -0.5601 N   0  0  0  0  0  0  0  0  0  0  0  0
   -2.4762    1.1470    0.2919 N   0  0  0  0  0  0  0  0  0  0  0  0
   -3.3355    2.2222    0.1642 N   0  0  0  0  0  0  0  0  0  0  0  0
   -2.8242   -1.3915    0.2099 C   0  0  1  0  0  0  0  0  0  0  0  0
   -2.4596   -1.9258   -1.1834 C   0  0  0  0  0  0  0  0  0  0  0  0
   -1.5689   -1.7366    1.0207 C   0  0  0  0  0  0  0  0  0  0  0  0
   -0.9657   -1.6501   -1.3069 C   0  0  0  0  0  0  0  0  0  0  0  0
   -3.2206    0.0740    0.1601 C   0  0  0  0  0  0  0  0  0  0  0  0
    0.8622   -1.6547    0.4772 C   0  0  0  0  0  0  0  0  0  0  0  0
    3.2109   -1.5491   -0.3271 C   0  0  0  0  0  0  0  0  0  0  0  0
   -4.5270    1.7085   -0.0344 C   0  0  0  0  0  0  0  0  0  0  0  0
    3.7191   -0.1431   -0.1887 C   0  0  0  0  0  0  0  0  0  0  0  0
   -5.8155    2.3837   -0.2332 C   0  0  0  0  0  0  0  0  0  0  0  0
    4.1488    0.5575   -1.3157 C   0  0  0  0  0  0  0  0  0  0  0  0
    3.7615    0.4626    1.0669 C   0  0  0  0  0  0  0  0  0  0  0  0
    4.6210    1.8638   -1.1871 C   0  0  0  0  0  0  0  0  0  0  0  0
    4.2338    1.7687    1.1958 C   0  0  0  0  0  0  0  0  0  0  0  0
    4.6635    2.4694    0.0687 C   0  0  0  0  0  0  0  0  0  0  0  0
   -3.6833   -1.9393    0.6166 H   0  0  0  0  0  0  0  0  0  0  0  0
   -2.6283   -3.0100   -1.2081 H   0  0  0  0  0  0  0  0  0  0  0  0
   -3.0322   -1.4778   -2.0014 H   0  0  0  0  0  0  0  0  0  0  0  0
   -1.3845   -1.0617    1.8625 H   0  0  0  0  0  0  0  0  0  0  0  0
   -1.6136   -2.7650    1.3975 H   0  0  0  0  0  0  0  0  0  0  0  0
   -0.4576   -2.3975   -1.9231 H   0  0  0  0  0  0  0  0  0  0  0  0
   -0.7696   -0.6527   -1.7147 H   0  0  0  0  0  0  0  0  0  0  0  0
    1.4668   -1.5171   -1.5197 H   0  0  0  0  0  0  0  0  0  0  0  0
    3.4553   -2.1338    0.5677 H   0  0  0  0  0  0  0  0  0  0  0  0
    3.6951   -2.0499   -1.1732 H   0  0  0  0  0  0  0  0  0  0  0  0
   -6.2450    2.1154   -1.2030 H   0  0  0  0  0  0  0  0  0  0  0  0
   -6.5241    2.0993    0.5503 H   0  0  0  0  0  0  0  0  0  0  0  0
   -5.6928    3.4704   -0.2037 H   0  0  0  0  0  0  0  0  0  0  0  0
    4.1189    0.0974   -2.2999 H   0  0  0  0  0  0  0  0  0  0  0  0
    3.4347   -0.0716    1.9547 H   0  0  0  0  0  0  0  0  0  0  0  0
    4.9552    2.4094   -2.0646 H   0  0  0  0  0  0  0  0  0  0  0  0
    4.2678    2.2400    2.1737 H   0  0  0  0  0  0  0  0  0  0  0  0
    5.0313    3.4863    0.1691 H   0  0  0  0  0  0  0  0  0  0  0  0
  1 11  1  0  0  0  0
  1 14  1  0  0  0  0
  2 12  2  0  0  0  0
  3  9  1  0  0  0  0
  3 10  1  0  0  0  0
  3 12  1  0  0  0  0
  4 12  1  0  0  0  0
  4 13  1  0  0  0  0
  4 29  1  0  0  0  0
  5  6  1  0  0  0  0
  5 11  2  0  0  0  0
  6 14  2  0  0  0  0
  7  8  1  0  0  0  0
  7  9  1  0  0  0  0
  7 11  1  0  0  0  0
  7 22  1  0  0  0  0
  8 10  1  0  0  0  0
  8 23  1  0  0  0  0
  8 24  1  0  0  0  0
  9 25  1  0  0  0  0
  9 26  1  0  0  0  0
 10 27  1  0  0  0  0
 10 28  1  0  0  0  0
 13 15  1  0  0  0  0
 13 30  1  0  0  0  0
 13 31  1  0  0  0  0
 14 16  1  0  0  0  0
 15 17  2  0  0  0  0
 15 18  1  0  0  0  0
 16 32  1  0  0  0  0
 16 33  1  0  0  0  0
 16 34  1  0  0  0  0
 17 19  1  0  0  0  0
 17 35  1  0  0  0  0
 18 20  2  0  0  0  0
 18 36  1  0  0  0  0
 19 21  2  0  0  0  0
 19 37  1  0  0  0  0
 20 21  1  0  0  0  0
 20 38  1  0  0  0  0
 21 39  1  0  0  0  0
M  END
> <PUBCHEM_COMPOUND_CID>
51137721

> <PUBCHEM_CONFORMER_RMSD>
0.8

> <PUBCHEM_CONFORMER_DIVERSEORDER>
1
44
35
27
11
45
49
17
29
19
18
36
37
21
20
28
23
48
25
51
5
12
41
56
22
52
57
8
39
46
54
43
24
14
31
50
30
34
40
32
26
2
33
38
53
42
47
3
16
13
7
15
6
9
10
55
4

> <PUBCHEM_MMFF94_PARTIAL_CHARGES>
26
1 -0.28
10 0.3
11 0.3
12 0.69
13 0.44
14 0.3
15 -0.14
16 0.18
17 -0.15
18 -0.15
19 -0.15
2 -0.57
20 -0.15
21 -0.15
29 0.37
3 -0.66
35 0.15
36 0.15
37 0.15
38 0.15
39 0.15
4 -0.73
5 -0.34
6 -0.34
7 0.18
9 0.3

> <PUBCHEM_EFFECTIVE_ROTOR_COUNT>
6

> <PUBCHEM_PHARMACOPHORE_FEATURES>
5
1 2 acceptor
1 4 donor
5 1 5 6 11 14 rings
5 3 7 8 9 10 rings
6 15 17 18 19 20 21 rings

> <PUBCHEM_HEAVY_ATOM_COUNT>
21

> <PUBCHEM_ATOM_DEF_STEREO_COUNT>
1

> <PUBCHEM_ATOM_UDEF_STEREO_COUNT>
0

> <PUBCHEM_BOND_DEF_STEREO_COUNT>
0

> <PUBCHEM_BOND_UDEF_STEREO_COUNT>
0

> <PUBCHEM_ISOTOPIC_ATOM_COUNT>
0

> <PUBCHEM_COMPONENT_COUNT>
1

> <PUBCHEM_CACTVS_TAUTO_COUNT>
2

> <PUBCHEM_CONFORMER_ID>
030C4CB900000001

> <PUBCHEM_MMFF94_ENERGY>
34.6982

> <PUBCHEM_FEATURE_SELFOVERLAP>
25.373

> <PUBCHEM_SHAPE_FINGERPRINT>
10498660 4 18131354145839832016
10670039 82 18263088859136802284
10928967 22 10879728614431592020
11796584 16 9655580677936585591
11961588 58 18340193142741939391
12173636 292 18339640147880067670
12596602 18 16950845928498519320
12633257 1 15285652000940054701
12788726 201 17246403575214690794
13878862 14 17897987067752189213
14251751 18 9871478582254208476
14251757 17 17846498183690420208
14251764 30 11887086879039784141
14251764 38 18269280049603146697
14251764 75 18342187630749326585
14468879 13 18411707607420548491
14739800 52 18337935892356299936
14790565 3 18127980694238261633
14848178 5 9367348106719014481
14848178 96 18410294692239965328
15142526 21 18040719181526534979
15163728 17 17916884425706902159
15238133 3 18334574690238554272
15342168 16 18113902654096844967
15342816 4 11383839259980914562
17834072 32 18413390917004771057
17868525 174 18191017899113227954
17959699 21 18411982450999038746
21475661 188 18334859419945764044
21503847 285 18260551096005257166
21734292 116 18410855434501581861
21864079 5 18337390538905047074
23227448 37 18412543249469100911
23503958 8 7997699696271470702
235170 7 17059785528020574788
23559900 14 18129097818951969998
245318 6 17678477447947185716
2838139 119 18340197484817005149
341906 21 18334859467401270956
3472631 163 18411980226685930149
38570 142 16517399771355812188
4028521 119 18202289138442432082
474 4 18040999565866511974
5104073 3 17967532376204469778
56616090 13 18336546032370634019
57724786 102 17822293531022601596
633830 44 18260545645591824054
7064713 232 18261110794251925324
7288768 16 17822012055212467258
76465 3 10591767567046424598
7808743 9 18337670931412849184
960060 61 13614244801982143722
9981440 41 18335418023508742898

> <PUBCHEM_SHAPE_MULTIPOLES>
400.51
12.44
3.12
1.24
1.83
0.84
0
11.73
1.14
1.19
0.07
-0.99
-0.27
-0.15

> <PUBCHEM_SHAPE_SELFOVERLAP>
849.715

> <PUBCHEM_SHAPE_VOLUME>
225.4

> <PUBCHEM_COORDINATE_TYPE>
2
5
10

$$$$
