28960603
  -OEChem-12032416223D

 58 60  0     1  0  0  0  0  0999 V2000
    3.1694    1.4495   -1.6638 O   0  0  0  0  0  0  0  0  0  0  0  0
    4.8920    1.8053   -0.1515 O   0  0  0  0  0  0  0  0  0  0  0  0
    3.2880    1.1061    2.1375 O   0  0  0  0  0  0  0  0  0  0  0  0
   -0.7020    1.7769    1.6202 O   0  0  0  0  0  0  0  0  0  0  0  0
   -6.1656   -0.2414   -1.5670 O   0  0  0  0  0  0  0  0  0  0  0  0
    2.7803   -1.2011   -0.6300 N   0  0  2  0  0  0  0  0  0  0  0  0
    0.5910    1.3985   -0.2579 N   0  0  0  0  0  0  0  0  0  0  0  0
    1.1164   -4.3282    0.5468 N   0  0  0  0  0  0  0  0  0  0  0  0
   -1.6562    0.9602   -0.3629 N   0  0  0  0  0  0  0  0  0  0  0  0
    3.5042   -0.1593    0.1012 C   0  0  2  0  0  0  0  0  0  0  0  0
    1.8505    1.8134    0.3216 C   0  0  1  0  0  0  0  0  0  0  0  0
    2.5343    0.6175    1.0201 C   0  0  2  0  0  0  0  0  0  0  0  0
    2.7323    2.4698   -0.7607 C   0  0  1  0  0  0  0  0  0  0  0  0
    4.1879    0.7962   -0.8940 C   0  0  1  0  0  0  0  0  0  0  0  0
    4.0676    2.9769   -0.2496 C   0  0  0  0  0  0  0  0  0  0  0  0
    2.5214   -2.3478    0.2393 C   0  0  0  0  0  0  0  0  0  0  0  0
    3.5365   -1.6141   -1.8111 C   0  0  0  0  0  0  0  0  0  0  0  0
    1.3630   -3.1743   -0.3110 C   0  0  0  0  0  0  0  0  0  0  0  0
   -0.6133    1.4123    0.4502 C   0  0  0  0  0  0  0  0  0  0  0  0
    0.4014   -5.3726   -0.1883 C   0  0  0  0  0  0  0  0  0  0  0  0
    0.3585   -3.9336    1.7353 C   0  0  0  0  0  0  0  0  0  0  0  0
   -3.0232    0.8240   -0.0260 C   0  0  0  0  0  0  0  0  0  0  0  0
   -3.9314    0.3520   -0.9736 C   0  0  0  0  0  0  0  0  0  0  0  0
   -3.4632    1.1625    1.2538 C   0  0  0  0  0  0  0  0  0  0  0  0
   -5.2796    0.2183   -0.6416 C   0  0  0  0  0  0  0  0  0  0  0  0
   -4.8114    1.0290    1.5858 C   0  0  0  0  0  0  0  0  0  0  0  0
   -5.7196    0.5567    0.6382 C   0  0  0  0  0  0  0  0  0  0  0  0
   -7.5290   -0.3525   -1.1610 C   0  0  0  0  0  0  0  0  0  0  0  0
    4.3014   -0.6038    0.7154 H   0  0  0  0  0  0  0  0  0  0  0  0
    1.6219    2.5832    1.0700 H   0  0  0  0  0  0  0  0  0  0  0  0
    1.7752   -0.0338    1.4647 H   0  0  0  0  0  0  0  0  0  0  0  0
    2.1796    3.2430   -1.3041 H   0  0  0  0  0  0  0  0  0  0  0  0
    4.9295    0.3352   -1.5508 H   0  0  0  0  0  0  0  0  0  0  0  0
    4.5404    3.6407   -0.9814 H   0  0  0  0  0  0  0  0  0  0  0  0
    4.0120    3.4916    0.7133 H   0  0  0  0  0  0  0  0  0  0  0  0
    0.5981    1.0077   -1.1952 H   0  0  0  0  0  0  0  0  0  0  0  0
    3.4224   -2.9685    0.3460 H   0  0  0  0  0  0  0  0  0  0  0  0
    2.2702   -2.0209    1.2516 H   0  0  0  0  0  0  0  0  0  0  0  0
    2.6655    1.5424    2.7439 H   0  0  0  0  0  0  0  0  0  0  0  0
    3.0947   -2.4939   -2.2898 H   0  0  0  0  0  0  0  0  0  0  0  0
    4.5739   -1.8834   -1.5768 H   0  0  0  0  0  0  0  0  0  0  0  0
    3.5124   -0.8655   -2.6097 H   0  0  0  0  0  0  0  0  0  0  0  0
    0.4608   -2.5586   -0.4299 H   0  0  0  0  0  0  0  0  0  0  0  0
    1.6211   -3.5349   -1.3125 H   0  0  0  0  0  0  0  0  0  0  0  0
   -1.4117    0.6951   -1.3137 H   0  0  0  0  0  0  0  0  0  0  0  0
    0.9946   -5.7224   -1.0407 H   0  0  0  0  0  0  0  0  0  0  0  0
   -0.5692   -5.0246   -0.5602 H   0  0  0  0  0  0  0  0  0  0  0  0
    0.2326   -6.2468    0.4506 H   0  0  0  0  0  0  0  0  0  0  0  0
    0.9144   -3.2303    2.3622 H   0  0  0  0  0  0  0  0  0  0  0  0
    0.1654   -4.8076    2.3685 H   0  0  0  0  0  0  0  0  0  0  0  0
   -0.6080   -3.4828    1.4809 H   0  0  0  0  0  0  0  0  0  0  0  0
   -3.5956    0.0864   -1.9733 H   0  0  0  0  0  0  0  0  0  0  0  0
   -2.8219    1.5342    2.0404 H   0  0  0  0  0  0  0  0  0  0  0  0
   -5.1544    1.2926    2.5823 H   0  0  0  0  0  0  0  0  0  0  0  0
   -6.7515    0.4774    0.9628 H   0  0  0  0  0  0  0  0  0  0  0  0
   -8.0920   -0.7326   -2.0198 H   0  0  0  0  0  0  0  0  0  0  0  0
   -7.9542    0.6244   -0.9072 H   0  0  0  0  0  0  0  0  0  0  0  0
   -7.6498   -1.0809   -0.3520 H   0  0  0  0  0  0  0  0  0  0  0  0
  1 13  1  0  0  0  0
  1 14  1  0  0  0  0
  2 14  1  0  0  0  0
  2 15  1  0  0  0  0
  3 12  1  0  0  0  0
  3 39  1  0  0  0  0
  4 19  2  0  0  0  0
  5 25  1  0  0  0  0
  5 28  1  0  0  0  0
  6 10  1  0  0  0  0
  6 16  1  0  0  0  0
  6 17  1  0  0  0  0
  7 11  1  0  0  0  0
  7 19  1  0  0  0  0
  7 36  1  0  0  0  0
  8 18  1  0  0  0  0
  8 20  1  0  0  0  0
  8 21  1  0  0  0  0
  9 19  1  0  0  0  0
  9 22  1  0  0  0  0
  9 45  1  0  0  0  0
 10 12  1  0  0  0  0
 10 14  1  0  0  0  0
 10 29  1  0  0  0  0
 11 12  1  0  0  0  0
 11 13  1  0  0  0  0
 11 30  1  0  0  0  0
 12 31  1  0  0  0  0
 13 15  1  0  0  0  0
 13 32  1  0  0  0  0
 14 33  1  0  0  0  0
 15 34  1  0  0  0  0
 15 35  1  0  0  0  0
 16 18  1  0  0  0  0
 16 37  1  0  0  0  0
 16 38  1  0  0  0  0
 17 40  1  0  0  0  0
 17 41  1  0  0  0  0
 17 42  1  0  0  0  0
 18 43  1  0  0  0  0
 18 44  1  0  0  0  0
 20 46  1  0  0  0  0
 20 47  1  0  0  0  0
 20 48  1  0  0  0  0
 21 49  1  0  0  0  0
 21 50  1  0  0  0  0
 21 51  1  0  0  0  0
 22 23  2  0  0  0  0
 22 24  1  0  0  0  0
 23 25  1  0  0  0  0
 23 52  1  0  0  0  0
 24 26  2  0  0  0  0
 24 53  1  0  0  0  0
 25 27  2  0  0  0  0
 26 27  1  0  0  0  0
 26 54  1  0  0  0  0
 27 55  1  0  0  0  0
 28 56  1  0  0  0  0
 28 57  1  0  0  0  0
 28 58  1  0  0  0  0
M  END
> <PUBCHEM_COMPOUND_CID>
28960603

> <PUBCHEM_CONFORMER_RMSD>
1

> <PUBCHEM_CONFORMER_DIVERSEORDER>
1
50
72
79
65
12
63
81
43
35
19
27
70
64
16
66
46
5
69
87
44
49
52
55
62
58
30
9
22
74
77
11
53
76
86
28
34
54
88
59
38
41
68
33
39
67
20
21
51
7
48
45
71
18
84
47
80
73
4
13
60
78
75
61
32
10
57
2
83
8
6
23
36
82
85
40
56
26
25
24
29
37
3
14
31
42
17
15

> <PUBCHEM_MMFF94_PARTIAL_CHARGES>
35
1 -0.56
10 0.27
11 0.3
12 0.28
13 0.28
14 0.56
15 0.28
16 0.27
17 0.27
18 0.27
19 0.69
2 -0.56
20 0.27
21 0.27
22 0.12
23 -0.15
24 -0.15
25 0.08
26 -0.15
27 -0.15
28 0.28
3 -0.68
36 0.37
39 0.4
4 -0.57
45 0.37
5 -0.36
52 0.15
53 0.15
54 0.15
55 0.15
6 -0.81
7 -0.73
8 -0.81
9 -0.55

> <PUBCHEM_EFFECTIVE_ROTOR_COUNT>
10.2

> <PUBCHEM_PHARMACOPHORE_FEATURES>
12
1 1 acceptor
1 2 acceptor
1 3 acceptor
1 3 donor
1 4 acceptor
1 5 acceptor
1 6 cation
1 7 donor
1 8 cation
1 9 donor
6 22 23 24 25 26 27 rings
8 1 2 10 11 12 13 14 15 rings

> <PUBCHEM_HEAVY_ATOM_COUNT>
28

> <PUBCHEM_ATOM_DEF_STEREO_COUNT>
5

> <PUBCHEM_ATOM_UDEF_STEREO_COUNT>
0

> <PUBCHEM_BOND_DEF_STEREO_COUNT>
0

> <PUBCHEM_BOND_UDEF_STEREO_COUNT>
0

> <PUBCHEM_ISOTOPIC_ATOM_COUNT>
0

> <PUBCHEM_COMPONENT_COUNT>
1

> <PUBCHEM_CACTVS_TAUTO_COUNT>
3

> <PUBCHEM_CONFORMER_ID>
01B9E75B00000001

> <PUBCHEM_MMFF94_ENERGY>
95.7321

> <PUBCHEM_FEATURE_SELFOVERLAP>
60.999

> <PUBCHEM_SHAPE_FINGERPRINT>
10090160 65 18410012126146155277
11014199 57 17257098064876810250
11135609 187 18410568522781647945
114674 6 18262809453896575338
12107183 9 17550682015110753761
12596602 18 17203890764720736625
13150687 139 18190762980315247004
13533116 47 18201718445074503969
1361 2 18408886260984237893
13692114 37 18129370657329333510
14675020 138 18269253777118925080
14863182 85 18411412887391970328
15183329 4 18411693276180519525
15250474 111 18271238340548075063
15348495 7 11239991292138866461
15537594 2 18060424638184775309
17134984 74 18339350968549146855
17138139 8 17843664793933995519
17818456 19 17412756012183967577
19319366 153 18341604936604028359
19427546 62 18264771145728180084
20028762 73 18200030634549522446
20511986 3 17917702492433820645
20645477 70 18260543403159764733
20775438 99 18201169810263399286
20775530 9 17686067088840130922
21285901 2 17603858967185227981
21304304 249 18335976494559905410
21360442 67 18334572486772930751
235170 7 17821731602854762797
238 59 18263095339852055122
34797466 226 16878238536398799661
463206 1 18343581849978590519
484989 97 18264506111939207714
59682541 52 18191286214684365805
68570916 9 8430016704522412773

> <PUBCHEM_SHAPE_MULTIPOLES>
526.96
13.5
4.96
1.6
25.91
9.48
0.24
-5.38
-4.45
-5.87
0.85
0.38
0.05
-0.81

> <PUBCHEM_SHAPE_SELFOVERLAP>
1098.505

> <PUBCHEM_SHAPE_VOLUME>
298.5

> <PUBCHEM_COORDINATE_TYPE>
2
5
10

$$$$
