7155621
  -OEChem-12032416213D

 68 72  0     1  0  0  0  0  0999 V2000
   -1.5120    2.6746    1.8092 O   0  0  0  0  0  0  0  0  0  0  0  0
   -3.0182   -2.3258    1.9618 O   0  0  0  0  0  0  0  0  0  0  0  0
    1.3350    1.9992   -2.0479 O   0  0  0  0  0  0  0  0  0  0  0  0
    3.3737   -4.7525   -1.2127 O   0  0  0  0  0  0  0  0  0  0  0  0
    6.8230    0.1102    0.8952 O   0  0  0  0  0  0  0  0  0  0  0  0
   -4.3652   -1.2121    0.4455 N   0  0  0  0  0  0  0  0  0  0  0  0
   -3.1657    1.7444    0.4453 N   0  0  0  0  0  0  0  0  0  0  0  0
   -2.5625   -2.5390   -0.3014 N   0  0  0  0  0  0  0  0  0  0  0  0
    0.2227    3.0444   -0.2894 N   0  0  0  0  0  0  0  0  0  0  0  0
   -5.3907    0.8748    1.3633 C   0  0  1  0  0  0  0  0  0  0  0  0
   -4.9161    0.7076   -1.0421 C   0  0  2  0  0  0  0  0  0  0  0  0
   -5.9341    1.2073   -0.0206 C   0  0  0  0  0  0  0  0  0  0  0  0
   -5.1961   -0.6436    1.5110 C   0  0  0  0  0  0  0  0  0  0  0  0
   -4.0861    1.6483    1.5860 C   0  0  0  0  0  0  0  0  0  0  0  0
   -4.7601   -0.8231   -0.9206 C   0  0  0  0  0  0  0  0  0  0  0  0
   -3.5676    1.3753   -0.8422 C   0  0  0  0  0  0  0  0  0  0  0  0
   -2.7511    1.5798   -1.8896 C   0  0  0  0  0  0  0  0  0  0  0  0
   -1.9034    2.3193    0.6967 C   0  0  0  0  0  0  0  0  0  0  0  0
   -3.2807   -2.0493    0.7884 C   0  0  0  0  0  0  0  0  0  0  0  0
   -1.0136    2.5060   -0.4930 C   0  0  0  0  0  0  0  0  0  0  0  0
   -1.4485    2.1555   -1.7079 C   0  0  0  0  0  0  0  0  0  0  0  0
   -1.1857   -2.8704   -0.3404 C   0  0  0  0  0  0  0  0  0  0  0  0
    1.3284    2.7578   -1.0813 C   0  0  0  0  0  0  0  0  0  0  0  0
   -0.3985   -2.7152    0.8007 C   0  0  0  0  0  0  0  0  0  0  0  0
   -0.6170   -3.3506   -1.5201 C   0  0  0  0  0  0  0  0  0  0  0  0
    2.5574    3.5094   -0.6044 C   0  0  0  0  0  0  0  0  0  0  0  0
    0.9573   -3.0404    0.7620 C   0  0  0  0  0  0  0  0  0  0  0  0
    0.7388   -3.6756   -1.5588 C   0  0  0  0  0  0  0  0  0  0  0  0
    3.6930    2.6046   -0.2047 C   0  0  0  0  0  0  0  0  0  0  0  0
    1.5260   -3.5207   -0.4178 C   0  0  0  0  0  0  0  0  0  0  0  0
    3.7979    2.1561    1.1120 C   0  0  0  0  0  0  0  0  0  0  0  0
    4.6400    2.2149   -1.1518 C   0  0  0  0  0  0  0  0  0  0  0  0
    2.9395   -3.8601   -0.4573 C   0  0  0  0  0  0  0  0  0  0  0  0
    4.8498    1.3180    1.4817 C   0  0  0  0  0  0  0  0  0  0  0  0
    5.6921    1.3769   -0.7822 C   0  0  0  0  0  0  0  0  0  0  0  0
    5.7969    0.9285    0.5345 C   0  0  0  0  0  0  0  0  0  0  0  0
    3.9324   -3.1233    0.4353 C   0  0  0  0  0  0  0  0  0  0  0  0
    6.8692   -0.3112    2.2575 C   0  0  0  0  0  0  0  0  0  0  0  0
   -6.1124    1.1914    2.1265 H   0  0  0  0  0  0  0  0  0  0  0  0
   -5.2977    0.9375   -2.0455 H   0  0  0  0  0  0  0  0  0  0  0  0
   -6.0929    2.2880   -0.1245 H   0  0  0  0  0  0  0  0  0  0  0  0
   -6.9054    0.7228   -0.1780 H   0  0  0  0  0  0  0  0  0  0  0  0
   -6.1684   -1.1483    1.4507 H   0  0  0  0  0  0  0  0  0  0  0  0
   -4.7807   -0.8728    2.4978 H   0  0  0  0  0  0  0  0  0  0  0  0
   -3.5383    1.2396    2.4445 H   0  0  0  0  0  0  0  0  0  0  0  0
   -4.3341    2.6848    1.8527 H   0  0  0  0  0  0  0  0  0  0  0  0
   -5.7178   -1.3170   -1.1251 H   0  0  0  0  0  0  0  0  0  0  0  0
   -4.0530   -1.1697   -1.6757 H   0  0  0  0  0  0  0  0  0  0  0  0
   -3.0368    1.2939   -2.8965 H   0  0  0  0  0  0  0  0  0  0  0  0
   -0.8860    2.3107   -2.6207 H   0  0  0  0  0  0  0  0  0  0  0  0
   -3.0523   -2.6682   -1.1801 H   0  0  0  0  0  0  0  0  0  0  0  0
    0.3774    3.4902    0.6115 H   0  0  0  0  0  0  0  0  0  0  0  0
   -0.7743   -2.3234    1.7376 H   0  0  0  0  0  0  0  0  0  0  0  0
   -1.2191   -3.4745   -2.4166 H   0  0  0  0  0  0  0  0  0  0  0  0
    2.3190    4.1836    0.2273 H   0  0  0  0  0  0  0  0  0  0  0  0
    2.8736    4.1672   -1.4243 H   0  0  0  0  0  0  0  0  0  0  0  0
    1.5462   -2.9162    1.6667 H   0  0  0  0  0  0  0  0  0  0  0  0
    1.1653   -4.0444   -2.4881 H   0  0  0  0  0  0  0  0  0  0  0  0
    3.0638    2.4520    1.8571 H   0  0  0  0  0  0  0  0  0  0  0  0
    4.5682    2.5560   -2.1811 H   0  0  0  0  0  0  0  0  0  0  0  0
    4.8702    1.0059    2.5201 H   0  0  0  0  0  0  0  0  0  0  0  0
    6.4264    1.0760   -1.5244 H   0  0  0  0  0  0  0  0  0  0  0  0
    4.9093   -3.1034   -0.0573 H   0  0  0  0  0  0  0  0  0  0  0  0
    3.6222   -2.0860    0.5883 H   0  0  0  0  0  0  0  0  0  0  0  0
    4.0168   -3.6402    1.3941 H   0  0  0  0  0  0  0  0  0  0  0  0
    7.0070    0.5368    2.9369 H   0  0  0  0  0  0  0  0  0  0  0  0
    5.9953   -0.9168    2.5208 H   0  0  0  0  0  0  0  0  0  0  0  0
    7.7483   -0.9547    2.3670 H   0  0  0  0  0  0  0  0  0  0  0  0
  1 18  2  0  0  0  0
  2 19  2  0  0  0  0
  3 23  2  0  0  0  0
  4 33  2  0  0  0  0
  5 36  1  0  0  0  0
  5 38  1  0  0  0  0
  6 13  1  0  0  0  0
  6 15  1  0  0  0  0
  6 19  1  0  0  0  0
  7 14  1  0  0  0  0
  7 16  1  0  0  0  0
  7 18  1  0  0  0  0
  8 19  1  0  0  0  0
  8 22  1  0  0  0  0
  8 51  1  0  0  0  0
  9 20  1  0  0  0  0
  9 23  1  0  0  0  0
  9 52  1  0  0  0  0
 10 12  1  0  0  0  0
 10 13  1  0  0  0  0
 10 14  1  0  0  0  0
 10 39  1  0  0  0  0
 11 12  1  0  0  0  0
 11 15  1  0  0  0  0
 11 16  1  0  0  0  0
 11 40  1  0  0  0  0
 12 41  1  0  0  0  0
 12 42  1  0  0  0  0
 13 43  1  0  0  0  0
 13 44  1  0  0  0  0
 14 45  1  0  0  0  0
 14 46  1  0  0  0  0
 15 47  1  0  0  0  0
 15 48  1  0  0  0  0
 16 17  2  0  0  0  0
 17 21  1  0  0  0  0
 17 49  1  0  0  0  0
 18 20  1  0  0  0  0
 20 21  2  0  0  0  0
 21 50  1  0  0  0  0
 22 24  2  0  0  0  0
 22 25  1  0  0  0  0
 23 26  1  0  0  0  0
 24 27  1  0  0  0  0
 24 53  1  0  0  0  0
 25 28  2  0  0  0  0
 25 54  1  0  0  0  0
 26 29  1  0  0  0  0
 26 55  1  0  0  0  0
 26 56  1  0  0  0  0
 27 30  2  0  0  0  0
 27 57  1  0  0  0  0
 28 30  1  0  0  0  0
 28 58  1  0  0  0  0
 29 31  2  0  0  0  0
 29 32  1  0  0  0  0
 30 33  1  0  0  0  0
 31 34  1  0  0  0  0
 31 59  1  0  0  0  0
 32 35  2  0  0  0  0
 32 60  1  0  0  0  0
 33 37  1  0  0  0  0
 34 36  2  0  0  0  0
 34 61  1  0  0  0  0
 35 36  1  0  0  0  0
 35 62  1  0  0  0  0
 37 63  1  0  0  0  0
 37 64  1  0  0  0  0
 37 65  1  0  0  0  0
 38 66  1  0  0  0  0
 38 67  1  0  0  0  0
 38 68  1  0  0  0  0
M  END
> <PUBCHEM_COMPOUND_CID>
7155621

> <PUBCHEM_CONFORMER_RMSD>
1

> <PUBCHEM_CONFORMER_DIVERSEORDER>
1
92
68
31
86
95
60
80
20
29
81
112
58
83
27
79
101
84
32
21
99
72
104
94
38
43
69
105
47
97
53
103
12
70
33
54
100
110
52
96
57
89
65
14
37
75
91
87
64
76
45
41
63
93
49
13
40
106
18
61
78
55
82
71
62
111
107
17
34
108
44
74
66
46
42
77
67
73
2
90
36
23
30
19
102
109
98
59
51
9
15
56
8
28
11
6
26
39
88
5
35
7
50
24
85
48
4
3
25
22
10
16

> <PUBCHEM_MMFF94_PARTIAL_CHARGES>
48
1 -0.57
11 0.14
13 0.3
14 0.3
15 0.3
16 -0.03
17 -0.15
18 0.62
19 0.69
2 -0.57
20 0.12
21 -0.15
22 0.12
23 0.57
24 -0.15
25 -0.15
26 0.2
27 -0.15
28 -0.15
29 -0.14
3 -0.57
30 0.09
31 -0.15
32 -0.15
33 0.42
34 -0.15
35 -0.15
36 0.08
37 0.06
38 0.28
4 -0.57
49 0.15
5 -0.36
50 0.15
51 0.37
52 0.37
53 0.15
54 0.15
57 0.15
58 0.15
59 0.15
6 -0.66
60 0.15
61 0.15
62 0.15
7 -0.47
8 -0.55
9 -0.54

> <PUBCHEM_EFFECTIVE_ROTOR_COUNT>
10

> <PUBCHEM_PHARMACOPHORE_FEATURES>
12
1 1 acceptor
1 2 acceptor
1 3 acceptor
1 4 acceptor
1 5 acceptor
1 8 donor
1 9 donor
6 22 24 25 27 28 30 rings
6 29 31 32 34 35 36 rings
6 6 10 11 12 13 15 rings
6 7 10 11 12 14 16 rings
6 7 16 17 18 20 21 rings

> <PUBCHEM_HEAVY_ATOM_COUNT>
38

> <PUBCHEM_ATOM_DEF_STEREO_COUNT>
2

> <PUBCHEM_ATOM_UDEF_STEREO_COUNT>
0

> <PUBCHEM_BOND_DEF_STEREO_COUNT>
0

> <PUBCHEM_BOND_UDEF_STEREO_COUNT>
0

> <PUBCHEM_ISOTOPIC_ATOM_COUNT>
0

> <PUBCHEM_COMPONENT_COUNT>
1

> <PUBCHEM_CACTVS_TAUTO_COUNT>
18

> <PUBCHEM_CONFORMER_ID>
006D2FA500000001

> <PUBCHEM_MMFF94_ENERGY>
121.9911

> <PUBCHEM_FEATURE_SELFOVERLAP>
62.468

> <PUBCHEM_SHAPE_FINGERPRINT>
10864689 126 17399514529104162886
11513181 2 18131070411431294983
11524674 6 18343581880370474653
11763389 116 18413108360356042550
12422481 6 18187363263510352504
13165053 371 16395504187837393249
13165054 342 17974301116568555044
14040221 222 17844235229814817890
14840074 17 17968096464456242005
15001296 14 17973157623931984560
15064986 96 18187376420119092745
15297060 5 18202283627846359234
15326923 133 18057605361638592758
15444296 8 15936675021842504606
16112460 7 18269278975834358320
16628084 112 17761207022604635471
16728300 4 18044376260786667739
20764821 26 18338519767427349404
21344244 246 18410566311263673335
229767 44 18337949125245574682
23516275 137 18045252451294720040
338550 245 18261393412053641052
373842 8 18409445852495046210
5085150 59 18341325669477585493
5265222 85 18046924936818350845
6287921 2 18127690426850916331
86090 222 18338524041304832814

> <PUBCHEM_SHAPE_MULTIPOLES>
732.75
14.5
6.27
1.89
9.61
5.67
-0.2
-4.69
-5.77
4.52
1.89
0.01
-0.22
0.25

> <PUBCHEM_SHAPE_SELFOVERLAP>
1592.967

> <PUBCHEM_SHAPE_VOLUME>
391.3

> <PUBCHEM_COORDINATE_TYPE>
2
5
10

$$$$
