7144186
  -OEChem-12032416413D

 53 57  0     1  0  0  0  0  0999 V2000
   -6.7018   -1.0191    1.0727 F   0  0  0  0  0  0  0  0  0  0  0  0
   -4.9669    0.1195    1.7576 F   0  0  0  0  0  0  0  0  0  0  0  0
   -6.5145    1.0839    0.5092 F   0  0  0  0  0  0  0  0  0  0  0  0
    3.9800    2.5320   -1.8525 O   0  0  0  0  0  0  0  0  0  0  0  0
    4.3122   -1.5808    1.1012 O   0  0  0  0  0  0  0  0  0  0  0  0
   -5.1286   -0.4635   -0.4479 O   0  0  0  0  0  0  0  0  0  0  0  0
    2.3922   -0.4345    1.7841 N   0  0  0  0  0  0  0  0  0  0  0  0
    2.3228    1.9255   -0.3125 N   0  0  0  0  0  0  0  0  0  0  0  0
    0.8899   -4.0557   -1.4322 N   0  0  0  0  0  0  0  0  0  0  0  0
    2.7559    1.9822    2.2159 C   0  0  1  0  0  0  0  0  0  0  0  0
    0.5823    1.2149    1.3556 C   0  0  2  0  0  0  0  0  0  0  0  0
    1.2526    2.1919    2.3208 C   0  0  0  0  0  0  0  0  0  0  0  0
    3.1286    0.5375    2.5896 C   0  0  0  0  0  0  0  0  0  0  0  0
    3.1973    2.3388    0.7951 C   0  0  0  0  0  0  0  0  0  0  0  0
    0.9360   -0.2333    1.7586 C   0  0  0  0  0  0  0  0  0  0  0  0
    1.0064    1.4730   -0.0924 C   0  0  0  0  0  0  0  0  0  0  0  0
    0.1809    1.2511   -1.1483 C   0  0  0  0  0  0  0  0  0  0  0  0
    2.8445    2.1266   -1.6027 C   0  0  0  0  0  0  0  0  0  0  0  0
    3.0935   -1.4149    1.0779 C   0  0  0  0  0  0  0  0  0  0  0  0
    0.6859    1.4435   -2.4942 C   0  0  0  0  0  0  0  0  0  0  0  0
    1.9358    1.8386   -2.7356 C   0  0  0  0  0  0  0  0  0  0  0  0
   -1.2160    0.7997   -0.9635 C   0  0  0  0  0  0  0  0  0  0  0  0
    2.3337   -2.3250    0.2127 C   0  0  0  0  0  0  0  0  0  0  0  0
   -1.5001   -0.5610   -0.9033 C   0  0  0  0  0  0  0  0  0  0  0  0
   -2.2360    1.7395   -0.8516 C   0  0  0  0  0  0  0  0  0  0  0  0
    2.1118   -1.9935   -1.1167 C   0  0  0  0  0  0  0  0  0  0  0  0
    1.8387   -3.5161    0.7250 C   0  0  0  0  0  0  0  0  0  0  0  0
   -2.8173   -0.9862   -0.7297 C   0  0  0  0  0  0  0  0  0  0  0  0
   -3.5531    1.3144   -0.6779 C   0  0  0  0  0  0  0  0  0  0  0  0
   -3.8438   -0.0485   -0.6170 C   0  0  0  0  0  0  0  0  0  0  0  0
    1.3892   -2.8863   -1.8917 C   0  0  0  0  0  0  0  0  0  0  0  0
    1.1283   -4.3408   -0.1324 C   0  0  0  0  0  0  0  0  0  0  0  0
   -5.8206   -0.0534    0.7263 C   0  0  0  0  0  0  0  0  0  0  0  0
    3.2709    2.6497    2.9177 H   0  0  0  0  0  0  0  0  0  0  0  0
   -0.4988    1.3477    1.4726 H   0  0  0  0  0  0  0  0  0  0  0  0
    0.9862    3.2271    2.0735 H   0  0  0  0  0  0  0  0  0  0  0  0
    0.9124    2.0094    3.3476 H   0  0  0  0  0  0  0  0  0  0  0  0
    4.2087    0.3871    2.4892 H   0  0  0  0  0  0  0  0  0  0  0  0
    2.8719    0.3437    3.6383 H   0  0  0  0  0  0  0  0  0  0  0  0
    3.2705    3.4325    0.7176 H   0  0  0  0  0  0  0  0  0  0  0  0
    4.2087    1.9576    0.6041 H   0  0  0  0  0  0  0  0  0  0  0  0
    0.5737   -0.4341    2.7747 H   0  0  0  0  0  0  0  0  0  0  0  0
    0.4449   -0.9556    1.1069 H   0  0  0  0  0  0  0  0  0  0  0  0
    0.0190    1.2421   -3.3273 H   0  0  0  0  0  0  0  0  0  0  0  0
    2.3067    1.9732   -3.7447 H   0  0  0  0  0  0  0  0  0  0  0  0
   -0.7198   -1.3059   -0.9931 H   0  0  0  0  0  0  0  0  0  0  0  0
   -2.0243    2.8048   -0.8984 H   0  0  0  0  0  0  0  0  0  0  0  0
    2.4975   -1.0773   -1.5476 H   0  0  0  0  0  0  0  0  0  0  0  0
    1.9960   -3.8009    1.7596 H   0  0  0  0  0  0  0  0  0  0  0  0
   -3.0375   -2.0492   -0.6836 H   0  0  0  0  0  0  0  0  0  0  0  0
   -4.3436    2.0554   -0.5983 H   0  0  0  0  0  0  0  0  0  0  0  0
    1.1885   -2.6773   -2.9374 H   0  0  0  0  0  0  0  0  0  0  0  0
    0.7186   -5.2831    0.2160 H   0  0  0  0  0  0  0  0  0  0  0  0
  1 33  1  0  0  0  0
  2 33  1  0  0  0  0
  3 33  1  0  0  0  0
  4 18  2  0  0  0  0
  5 19  2  0  0  0  0
  6 30  1  0  0  0  0
  6 33  1  0  0  0  0
  7 13  1  0  0  0  0
  7 15  1  0  0  0  0
  7 19  1  0  0  0  0
  8 14  1  0  0  0  0
  8 16  1  0  0  0  0
  8 18  1  0  0  0  0
  9 31  2  0  0  0  0
  9 32  1  0  0  0  0
 10 12  1  0  0  0  0
 10 13  1  0  0  0  0
 10 14  1  0  0  0  0
 10 34  1  0  0  0  0
 11 12  1  0  0  0  0
 11 15  1  0  0  0  0
 11 16  1  0  0  0  0
 11 35  1  0  0  0  0
 12 36  1  0  0  0  0
 12 37  1  0  0  0  0
 13 38  1  0  0  0  0
 13 39  1  0  0  0  0
 14 40  1  0  0  0  0
 14 41  1  0  0  0  0
 15 42  1  0  0  0  0
 15 43  1  0  0  0  0
 16 17  2  0  0  0  0
 17 20  1  0  0  0  0
 17 22  1  0  0  0  0
 18 21  1  0  0  0  0
 19 23  1  0  0  0  0
 20 21  2  0  0  0  0
 20 44  1  0  0  0  0
 21 45  1  0  0  0  0
 22 24  2  0  0  0  0
 22 25  1  0  0  0  0
 23 26  2  0  0  0  0
 23 27  1  0  0  0  0
 24 28  1  0  0  0  0
 24 46  1  0  0  0  0
 25 29  2  0  0  0  0
 25 47  1  0  0  0  0
 26 31  1  0  0  0  0
 26 48  1  0  0  0  0
 27 32  2  0  0  0  0
 27 49  1  0  0  0  0
 28 30  2  0  0  0  0
 28 50  1  0  0  0  0
 29 30  1  0  0  0  0
 29 51  1  0  0  0  0
 31 52  1  0  0  0  0
 32 53  1  0  0  0  0
M  END
> <PUBCHEM_COMPOUND_CID>
7144186

> <PUBCHEM_CONFORMER_RMSD>
0.8

> <PUBCHEM_CONFORMER_DIVERSEORDER>
1
4
9
7
8
6
5
3
2

> <PUBCHEM_MMFF94_PARTIAL_CHARGES>
41
1 -0.34
11 0.14
13 0.3
14 0.3
15 0.3
16 -0.03
17 -0.03
18 0.62
19 0.54
2 -0.34
20 -0.15
21 -0.14
22 0.03
23 0.09
24 -0.15
25 -0.15
26 -0.15
27 -0.15
28 -0.15
29 -0.15
3 -0.34
30 0.08
31 0.16
32 0.16
33 1.3
4 -0.57
44 0.15
45 0.15
46 0.15
47 0.15
48 0.15
49 0.15
5 -0.57
50 0.15
51 0.15
52 0.15
53 0.15
6 -0.36
7 -0.66
8 -0.47
9 -0.62

> <PUBCHEM_EFFECTIVE_ROTOR_COUNT>
6

> <PUBCHEM_PHARMACOPHORE_FEATURES>
9
1 4 acceptor
1 5 acceptor
1 6 acceptor
1 9 acceptor
6 22 24 25 28 29 30 rings
6 7 10 11 12 13 15 rings
6 8 10 11 12 14 16 rings
6 8 16 17 18 20 21 rings
6 9 23 26 27 31 32 rings

> <PUBCHEM_HEAVY_ATOM_COUNT>
33

> <PUBCHEM_ATOM_DEF_STEREO_COUNT>
2

> <PUBCHEM_ATOM_UDEF_STEREO_COUNT>
0

> <PUBCHEM_BOND_DEF_STEREO_COUNT>
0

> <PUBCHEM_BOND_UDEF_STEREO_COUNT>
0

> <PUBCHEM_ISOTOPIC_ATOM_COUNT>
0

> <PUBCHEM_COMPONENT_COUNT>
1

> <PUBCHEM_CACTVS_TAUTO_COUNT>
1

> <PUBCHEM_CONFORMER_ID>
006D02FA00000001

> <PUBCHEM_MMFF94_ENERGY>
105.2453

> <PUBCHEM_FEATURE_SELFOVERLAP>
47.258

> <PUBCHEM_SHAPE_FINGERPRINT>
10064457 181 18053919991682108016
11421498 54 18270135542637769816
11578080 2 16617333463527937224
12128747 34 17982997961254552797
12156800 1 15723374297439908350
12422481 6 17973125605399121240
13583140 156 17916000426938126853
14114207 22 12998901534238420943
14863182 85 18336260227866604176
15324884 4 17540485277713896744
15392192 104 18189069741140194155
17492 54 17749690514750732494
17974551 9 17054118399914307016
1813 80 17823414894663329149
19301679 30 18187090564407192689
1979834 28 18408316709750342409
20578428 11 16661512717168432743
20600515 1 17476363803126188348
20764821 26 18114749364382802939
20775530 9 17979346461067845054
21421861 104 18202008685615281233
23559900 14 18188495671025839607
3052486 1 17617081947260415038
3117164 225 17913214161868608657
35225 105 17196263632973698606
44317340 157 8502364556528360955
460360 51 18057610859075373241
513532 50 16702305658635226375
563151 248 17898276454639504680
57527452 28 18409456860912821246
57527585 103 16684840698624288102
6287921 2 18336816541905668654
6823239 73 17603868875500543489

> <PUBCHEM_SHAPE_MULTIPOLES>
624.75
9.56
4.24
2.61
22.46
4.86
-0.1
-0.87
4.09
-4.79
-1.12
-2.12
-1.37
-0.07

> <PUBCHEM_SHAPE_SELFOVERLAP>
1384.776

> <PUBCHEM_SHAPE_VOLUME>
332.5

> <PUBCHEM_COORDINATE_TYPE>
2
5
10

$$$$
