51137668
  -OEChem-12032416243D

 45 48  0     1  0  0  0  0  0999 V2000
   -7.5913    0.5018    1.6623 F   0  0  0  0  0  0  0  0  0  0  0  0
   -8.0914   -0.6205   -0.1316 F   0  0  0  0  0  0  0  0  0  0  0  0
   -8.0186    1.5520   -0.1864 F   0  0  0  0  0  0  0  0  0  0  0  0
    7.0848   -0.9091   -0.1068 F   0  0  0  0  0  0  0  0  0  0  0  0
    2.9621   -0.4301    0.1583 O   0  0  0  0  0  0  0  0  0  0  0  0
   -1.0539   -0.7721   -0.3013 N   0  0  1  0  0  0  0  0  0  0  0  0
    3.3797   -2.6275    0.1222 N   0  0  0  0  0  0  0  0  0  0  0  0
    4.5889   -1.9617    0.0475 N   0  0  0  0  0  0  0  0  0  0  0  0
    0.9566   -1.8296    0.2809 C   0  0  1  0  0  0  0  0  0  0  0  0
    0.3286   -1.1930    1.5330 C   0  0  0  0  0  0  0  0  0  0  0  0
    0.2210   -1.1770   -0.8973 C   0  0  0  0  0  0  0  0  0  0  0  0
   -0.6986   -0.2032    0.9988 C   0  0  0  0  0  0  0  0  0  0  0  0
   -1.7836    0.1696   -1.1375 C   0  0  0  0  0  0  0  0  0  0  0  0
    2.4588   -1.6944    0.1853 C   0  0  0  0  0  0  0  0  0  0  0  0
   -3.2392    0.2436   -0.7598 C   0  0  0  0  0  0  0  0  0  0  0  0
   -4.1110   -0.7769   -1.1394 C   0  0  0  0  0  0  0  0  0  0  0  0
   -3.7160    1.3330   -0.0306 C   0  0  0  0  0  0  0  0  0  0  0  0
    4.2968   -0.6822    0.0715 C   0  0  0  0  0  0  0  0  0  0  0  0
   -5.4596   -0.7081   -0.7900 C   0  0  0  0  0  0  0  0  0  0  0  0
   -5.0645    1.4018    0.3189 C   0  0  0  0  0  0  0  0  0  0  0  0
   -5.9363    0.3814   -0.0608 C   0  0  0  0  0  0  0  0  0  0  0  0
    5.1508    0.4688    0.0218 C   0  0  0  0  0  0  0  0  0  0  0  0
   -7.3779    0.4543    0.3141 C   0  0  0  0  0  0  0  0  0  0  0  0
    6.5341    0.3130   -0.0661 C   0  0  0  0  0  0  0  0  0  0  0  0
    4.5941    1.7470    0.0627 C   0  0  0  0  0  0  0  0  0  0  0  0
    7.3608    1.4356   -0.1131 C   0  0  0  0  0  0  0  0  0  0  0  0
    5.4208    2.8697    0.0158 C   0  0  0  0  0  0  0  0  0  0  0  0
    6.8041    2.7140   -0.0722 C   0  0  0  0  0  0  0  0  0  0  0  0
    0.7236   -2.9034    0.2954 H   0  0  0  0  0  0  0  0  0  0  0  0
   -0.1716   -1.9713    2.1230 H   0  0  0  0  0  0  0  0  0  0  0  0
    1.0574   -0.6997    2.1847 H   0  0  0  0  0  0  0  0  0  0  0  0
    0.7717   -0.3116   -1.2890 H   0  0  0  0  0  0  0  0  0  0  0  0
    0.0763   -1.8892   -1.7170 H   0  0  0  0  0  0  0  0  0  0  0  0
   -1.5563   -0.1255    1.6741 H   0  0  0  0  0  0  0  0  0  0  0  0
   -0.2373    0.7881    0.9007 H   0  0  0  0  0  0  0  0  0  0  0  0
   -1.3251    1.1678   -1.1334 H   0  0  0  0  0  0  0  0  0  0  0  0
   -1.7460   -0.1578   -2.1862 H   0  0  0  0  0  0  0  0  0  0  0  0
   -3.7515   -1.6307   -1.7077 H   0  0  0  0  0  0  0  0  0  0  0  0
   -3.0470    2.1339    0.2727 H   0  0  0  0  0  0  0  0  0  0  0  0
   -6.1220   -1.5133   -1.0953 H   0  0  0  0  0  0  0  0  0  0  0  0
   -5.4266    2.2541    0.8877 H   0  0  0  0  0  0  0  0  0  0  0  0
    3.5215    1.9098    0.1311 H   0  0  0  0  0  0  0  0  0  0  0  0
    8.4378    1.3141   -0.1816 H   0  0  0  0  0  0  0  0  0  0  0  0
    4.9878    3.8652    0.0476 H   0  0  0  0  0  0  0  0  0  0  0  0
    7.4478    3.5880   -0.1088 H   0  0  0  0  0  0  0  0  0  0  0  0
  1 23  1  0  0  0  0
  2 23  1  0  0  0  0
  3 23  1  0  0  0  0
  4 24  1  0  0  0  0
  5 14  1  0  0  0  0
  5 18  1  0  0  0  0
  6 11  1  0  0  0  0
  6 12  1  0  0  0  0
  6 13  1  0  0  0  0
  7  8  1  0  0  0  0
  7 14  2  0  0  0  0
  8 18  2  0  0  0  0
  9 10  1  0  0  0  0
  9 11  1  0  0  0  0
  9 14  1  0  0  0  0
  9 29  1  0  0  0  0
 10 12  1  0  0  0  0
 10 30  1  0  0  0  0
 10 31  1  0  0  0  0
 11 32  1  0  0  0  0
 11 33  1  0  0  0  0
 12 34  1  0  0  0  0
 12 35  1  0  0  0  0
 13 15  1  0  0  0  0
 13 36  1  0  0  0  0
 13 37  1  0  0  0  0
 15 16  2  0  0  0  0
 15 17  1  0  0  0  0
 16 19  1  0  0  0  0
 16 38  1  0  0  0  0
 17 20  2  0  0  0  0
 17 39  1  0  0  0  0
 18 22  1  0  0  0  0
 19 21  2  0  0  0  0
 19 40  1  0  0  0  0
 20 21  1  0  0  0  0
 20 41  1  0  0  0  0
 21 23  1  0  0  0  0
 22 24  1  0  0  0  0
 22 25  2  0  0  0  0
 24 26  2  0  0  0  0
 25 27  1  0  0  0  0
 25 42  1  0  0  0  0
 26 28  1  0  0  0  0
 26 43  1  0  0  0  0
 27 28  2  0  0  0  0
 27 44  1  0  0  0  0
 28 45  1  0  0  0  0
M  END
> <PUBCHEM_COMPOUND_CID>
51137668

> <PUBCHEM_CONFORMER_RMSD>
0.8

> <PUBCHEM_CONFORMER_DIVERSEORDER>
1
141
198
40
114
192
202
194
220
189
142
197
185
36
75
246
186
234
30
100
151
158
54
124
237
116
139
219
167
137
118
15
228
86
144
210
25
81
109
201
47
70
214
173
84
127
171
172
19
206
136
21
165
244
191
175
48
104
5
92
79
155
131
52
39
82
26
179
223
205
180
231
239
222
119
248
128
132
59
60
251
188
193
209
83
182
23
236
37
3
159
57
163
78
195
238
161
77
184
22
45
177
106
199
2
156
43
176
63
91
10
74
208
112
98
147
97
129
153
203
160
16
168
33
157
28
107
250
247
67
69
13
200
73
9
101
96
181
138
35
150
32
66
225
115
174
68
7
53
217
102
164
170
108
89
126
50
190
38
95
148
31
135
230
130
213
11
85
29
152
17
120
218
34
72
42
18
211
94
212
233
80
58
123
166
196
125
162
154
64
56
49
183
140
103
71
235
4
76
229
134
243
61
117
149
105
143
65
207
226
8
110
122
93
113
46
24
242
133
55
41
224
51
27
121
145
187
232
249
227
169
6
62
111
221
99
178
20
215
88
14
245
90
87
241
146
204
12
44
240
216

> <PUBCHEM_MMFF94_PARTIAL_CHARGES>
35
1 -0.34
11 0.27
12 0.27
13 0.41
14 0.3
15 -0.14
16 -0.15
17 -0.15
18 0.43
19 -0.15
2 -0.34
20 -0.15
21 -0.14
22 0.05
23 1.16
24 0.19
25 -0.15
26 -0.15
27 -0.15
28 -0.15
3 -0.34
38 0.15
39 0.15
4 -0.19
40 0.15
41 0.15
42 0.15
43 0.15
44 0.15
45 0.15
5 -0.28
6 -0.81
7 -0.34
8 -0.34
9 0.18

> <PUBCHEM_EFFECTIVE_ROTOR_COUNT>
6

> <PUBCHEM_PHARMACOPHORE_FEATURES>
5
1 6 cation
5 5 7 8 14 18 rings
5 6 9 10 11 12 rings
6 15 16 17 19 20 21 rings
6 22 24 25 26 27 28 rings

> <PUBCHEM_HEAVY_ATOM_COUNT>
28

> <PUBCHEM_ATOM_DEF_STEREO_COUNT>
1

> <PUBCHEM_ATOM_UDEF_STEREO_COUNT>
0

> <PUBCHEM_BOND_DEF_STEREO_COUNT>
0

> <PUBCHEM_BOND_UDEF_STEREO_COUNT>
0

> <PUBCHEM_ISOTOPIC_ATOM_COUNT>
0

> <PUBCHEM_COMPONENT_COUNT>
1

> <PUBCHEM_CACTVS_TAUTO_COUNT>
1

> <PUBCHEM_CONFORMER_ID>
030C4C8400000001

> <PUBCHEM_MMFF94_ENERGY>
52.7666

> <PUBCHEM_FEATURE_SELFOVERLAP>
25.374

> <PUBCHEM_SHAPE_FINGERPRINT>
10 15 17821446871833769145
10299344 5 18131912659229257895
10319688 67 16153706565323795136
10411042 1 17977945680256978650
10595046 47 18341889684429986935
10625338 86 16443342087925167900
106641 1 14345798266833024790
10673678 19 18272654575679894382
11315181 36 18343021083076233555
11456790 92 18259977159673381368
11646440 116 17603586335398577484
11719270 70 13045940192326216665
11724838 91 18040715891587042527
12522641 24 17604138217384606458
12592606 108 8862942775374380769
12730499 353 18187082824206745066
13533116 47 17241034411064975578
13668630 136 11024105447820177389
13685833 64 10159701300442093446
13885169 127 9655587300882008307
14142895 15 18338796818840991479
14394314 77 18341056233722493593
14461889 52 17240772795426119979
14565420 104 18040431088506621546
14681490 219 18413105052809562496
14849402 71 18339644541942782633
14856354 85 17203608207939372175
14933364 13 18412262835064495221
15064981 194 18123203548042854276
15183329 4 16415204489546953640
15188451 53 12035723215493513190
15276724 80 18339640036727447397
15419008 145 18189041007551086128
15475509 8 14045748122970323019
15685185 35 18194123147546923788
15690457 1 11530482246284076049
15728490 51 18335701698152253999
1577012 14 18272081712435643006
15840311 113 18410577270980930757
18335252 114 18271800220738278212
18393751 57 17603583067007313034
19301679 30 12252442429459311256
19302320 297 18187361095644690244
20157964 124 18411138026765355738
20554085 129 16298099887007830385
21033648 29 18190454056212680672
21298829 104 18340203115873071044
21521721 280 18408044000770663355
21641784 216 16486982760471131017
2215653 11 12031788080183019150
22224240 67 17676205779878103739
23389318 12 18341320181216374135
23522609 53 17774736294288208817
23576562 1 16199284647407119681
255183 451 17843129100429194870
2747138 104 17603596209596799813
2838139 119 18335693949777505548
28498 318 10303817575107823539
3004659 81 10952048953299002694
335352 9 18410015430368768086
34797466 226 18202006499266054807
3711267 37 17704079490527392345
397830 11 18041571337788319763
4073 2 18260551159776093995
4325135 7 18413387627107204295
4340502 62 17385721391930865362
437815 12 11672066354155581498
44317340 157 18060134362640525696
444735 82 18259988154209683181
445580 126 18412535531972240912
445580 167 18340760520943871311
5104073 3 16951957367598570489
5265222 85 17488455450488516311
5372103 7 15912184608390794520
5758199 1 18333449850307587651
58902169 19 18131345337262731164
5911458 16 18059863860957688073
59682541 35 17749113313842368257
59682541 52 17417545648733510692
6328613 192 18272651243054376057

> <PUBCHEM_SHAPE_MULTIPOLES>
526.32
24.87
2.42
0.99
16.22
0.45
-0.14
13.16
-0.9
-4.51
-0.11
1.1
-0.14
-0.69

> <PUBCHEM_SHAPE_SELFOVERLAP>
1153.93

> <PUBCHEM_SHAPE_VOLUME>
287.8

> <PUBCHEM_COORDINATE_TYPE>
2
5
10

$$$$
