25313754
  -OEChem-12032416193D

 69 72  0     1  0  0  0  0  0999 V2000
   -3.8171   -1.5095   -1.7539 O   0  0  0  0  0  0  0  0  0  0  0  0
    3.3028    1.8238   -1.8206 O   0  0  0  0  0  0  0  0  0  0  0  0
    7.7849   -2.2892    1.9317 O   0  0  0  0  0  0  0  0  0  0  0  0
   -0.9535    2.9123    1.1650 N   0  0  0  0  0  0  0  0  0  0  0  0
    4.4868    0.6567   -0.1989 N   0  0  0  0  0  0  0  0  0  0  0  0
    6.5911   -1.1793    0.2774 N   0  0  0  0  0  0  0  0  0  0  0  0
   -2.5188   -1.0547   -1.9500 N   0  0  0  0  0  0  0  0  0  0  0  0
    0.8749    1.6149   -0.7534 C   0  0  1  0  0  0  0  0  0  0  0  0
   -0.5137    1.0328   -0.3970 C   0  0  2  0  0  0  0  0  0  0  0  0
    0.8661    3.1302   -0.4913 C   0  0  0  0  0  0  0  0  0  0  0  0
   -0.9632    1.4571    1.0113 C   0  0  0  0  0  0  0  0  0  0  0  0
    2.0407    0.9412   -0.0197 C   0  0  0  0  0  0  0  0  0  0  0  0
   -0.5828   -0.4875   -0.5477 C   0  0  0  0  0  0  0  0  0  0  0  0
    0.3705    3.4766    0.9120 C   0  0  0  0  0  0  0  0  0  0  0  0
   -6.4430   -1.0624   -0.0987 C   0  0  0  0  0  0  0  0  0  0  0  0
   -7.8169   -1.6333    0.2776 C   0  0  0  0  0  0  0  0  0  0  0  0
   -6.0730    0.1160    0.8122 C   0  0  0  0  0  0  0  0  0  0  0  0
   -5.3717   -2.1494   -0.0362 C   0  0  0  0  0  0  0  0  0  0  0  0
   -8.8964   -0.5533    0.2742 C   0  0  0  0  0  0  0  0  0  0  0  0
   -7.1555    1.1931    0.8081 C   0  0  0  0  0  0  0  0  0  0  0  0
   -1.9982   -0.9561   -0.7235 C   0  0  0  0  0  0  0  0  0  0  0  0
    3.3282    1.1852   -0.7656 C   0  0  0  0  0  0  0  0  0  0  0  0
   -8.5212    0.6203    1.1738 C   0  0  0  0  0  0  0  0  0  0  0  0
   -4.0396   -1.6706   -0.4245 C   0  0  0  0  0  0  0  0  0  0  0  0
   -2.9123   -1.3315    0.2761 C   0  0  0  0  0  0  0  0  0  0  0  0
    5.7785    0.8472   -0.8635 C   0  0  0  0  0  0  0  0  0  0  0  0
    4.5614   -0.0423    1.0908 C   0  0  0  0  0  0  0  0  0  0  0  0
    6.5166   -0.4804   -1.0124 C   0  0  0  0  0  0  0  0  0  0  0  0
    5.2993   -1.3701    0.9416 C   0  0  0  0  0  0  0  0  0  0  0  0
    7.7500   -1.7058    0.8454 C   0  0  0  0  0  0  0  0  0  0  0  0
    9.0251   -1.5321    0.0597 C   0  0  0  0  0  0  0  0  0  0  0  0
    0.9936    1.4626   -1.8351 H   0  0  0  0  0  0  0  0  0  0  0  0
   -1.2241    1.4802   -1.1102 H   0  0  0  0  0  0  0  0  0  0  0  0
    0.2056    3.6094   -1.2268 H   0  0  0  0  0  0  0  0  0  0  0  0
    1.8573    3.5714   -0.6423 H   0  0  0  0  0  0  0  0  0  0  0  0
   -1.9868    1.1225    1.2030 H   0  0  0  0  0  0  0  0  0  0  0  0
   -0.3291    0.9968    1.7791 H   0  0  0  0  0  0  0  0  0  0  0  0
    1.9070   -0.1441    0.0120 H   0  0  0  0  0  0  0  0  0  0  0  0
    2.1313    1.3078    1.0060 H   0  0  0  0  0  0  0  0  0  0  0  0
   -0.1463   -0.9943    0.3218 H   0  0  0  0  0  0  0  0  0  0  0  0
   -0.0035   -0.8067   -1.4240 H   0  0  0  0  0  0  0  0  0  0  0  0
    1.0792    3.1433    1.6781 H   0  0  0  0  0  0  0  0  0  0  0  0
    0.3057    4.5668    1.0028 H   0  0  0  0  0  0  0  0  0  0  0  0
   -6.5023   -0.6867   -1.1302 H   0  0  0  0  0  0  0  0  0  0  0  0
   -1.2479    3.1537    2.1109 H   0  0  0  0  0  0  0  0  0  0  0  0
   -7.7710   -2.0930    1.2733 H   0  0  0  0  0  0  0  0  0  0  0  0
   -8.0981   -2.4264   -0.4257 H   0  0  0  0  0  0  0  0  0  0  0  0
   -5.1362    0.5844    0.4909 H   0  0  0  0  0  0  0  0  0  0  0  0
   -5.9199   -0.2371    1.8401 H   0  0  0  0  0  0  0  0  0  0  0  0
   -5.6567   -2.9810   -0.6935 H   0  0  0  0  0  0  0  0  0  0  0  0
   -5.3248   -2.5684    0.9774 H   0  0  0  0  0  0  0  0  0  0  0  0
   -9.8481   -0.9827    0.6067 H   0  0  0  0  0  0  0  0  0  0  0  0
   -9.0489   -0.1934   -0.7507 H   0  0  0  0  0  0  0  0  0  0  0  0
   -7.2073    1.6546   -0.1857 H   0  0  0  0  0  0  0  0  0  0  0  0
   -6.8881    1.9869    1.5149 H   0  0  0  0  0  0  0  0  0  0  0  0
   -9.2831    1.4039    1.0952 H   0  0  0  0  0  0  0  0  0  0  0  0
   -8.5097    0.2891    2.2195 H   0  0  0  0  0  0  0  0  0  0  0  0
   -2.7747   -1.3557    1.3470 H   0  0  0  0  0  0  0  0  0  0  0  0
    6.3592    1.5381   -0.2405 H   0  0  0  0  0  0  0  0  0  0  0  0
    5.6491    1.3143   -1.8447 H   0  0  0  0  0  0  0  0  0  0  0  0
    3.5766   -0.2241    1.5232 H   0  0  0  0  0  0  0  0  0  0  0  0
    5.1048    0.6188    1.7767 H   0  0  0  0  0  0  0  0  0  0  0  0
    5.9744   -1.1416   -1.6991 H   0  0  0  0  0  0  0  0  0  0  0  0
    7.5044   -0.3012   -1.4402 H   0  0  0  0  0  0  0  0  0  0  0  0
    5.4277   -1.8386    1.9223 H   0  0  0  0  0  0  0  0  0  0  0  0
    4.7184   -2.0600    0.3177 H   0  0  0  0  0  0  0  0  0  0  0  0
    9.2661   -0.4701   -0.0367 H   0  0  0  0  0  0  0  0  0  0  0  0
    8.9301   -1.9956   -0.9259 H   0  0  0  0  0  0  0  0  0  0  0  0
    9.8480   -2.0232    0.5884 H   0  0  0  0  0  0  0  0  0  0  0  0
  1  7  1  0  0  0  0
  1 24  1  0  0  0  0
  2 22  2  0  0  0  0
  3 30  2  0  0  0  0
  4 11  1  0  0  0  0
  4 14  1  0  0  0  0
  4 45  1  0  0  0  0
  5 22  1  0  0  0  0
  5 26  1  0  0  0  0
  5 27  1  0  0  0  0
  6 28  1  0  0  0  0
  6 29  1  0  0  0  0
  6 30  1  0  0  0  0
  7 21  2  0  0  0  0
  8  9  1  0  0  0  0
  8 10  1  0  0  0  0
  8 12  1  0  0  0  0
  8 32  1  0  0  0  0
  9 11  1  0  0  0  0
  9 13  1  0  0  0  0
  9 33  1  0  0  0  0
 10 14  1  0  0  0  0
 10 34  1  0  0  0  0
 10 35  1  0  0  0  0
 11 36  1  0  0  0  0
 11 37  1  0  0  0  0
 12 22  1  0  0  0  0
 12 38  1  0  0  0  0
 12 39  1  0  0  0  0
 13 21  1  0  0  0  0
 13 40  1  0  0  0  0
 13 41  1  0  0  0  0
 14 42  1  0  0  0  0
 14 43  1  0  0  0  0
 15 16  1  0  0  0  0
 15 17  1  0  0  0  0
 15 18  1  0  0  0  0
 15 44  1  0  0  0  0
 16 19  1  0  0  0  0
 16 46  1  0  0  0  0
 16 47  1  0  0  0  0
 17 20  1  0  0  0  0
 17 48  1  0  0  0  0
 17 49  1  0  0  0  0
 18 24  1  0  0  0  0
 18 50  1  0  0  0  0
 18 51  1  0  0  0  0
 19 23  1  0  0  0  0
 19 52  1  0  0  0  0
 19 53  1  0  0  0  0
 20 23  1  0  0  0  0
 20 54  1  0  0  0  0
 20 55  1  0  0  0  0
 21 25  1  0  0  0  0
 23 56  1  0  0  0  0
 23 57  1  0  0  0  0
 24 25  2  0  0  0  0
 25 58  1  0  0  0  0
 26 28  1  0  0  0  0
 26 59  1  0  0  0  0
 26 60  1  0  0  0  0
 27 29  1  0  0  0  0
 27 61  1  0  0  0  0
 27 62  1  0  0  0  0
 28 63  1  0  0  0  0
 28 64  1  0  0  0  0
 29 65  1  0  0  0  0
 29 66  1  0  0  0  0
 30 31  1  0  0  0  0
 31 67  1  0  0  0  0
 31 68  1  0  0  0  0
 31 69  1  0  0  0  0
M  END
> <PUBCHEM_COMPOUND_CID>
25313754

> <PUBCHEM_CONFORMER_RMSD>
1.4

> <PUBCHEM_CONFORMER_DIVERSEORDER>
1
8
25
80
23
18
22
112
39
123
44
109
4
69
48
83
60
94
54
16
121
103
45
19
67
34
49
73
125
99
72
51
111
87
29
82
71
85
52
10
120
38
91
116
27
3
20
77
101
6
117
75
96
61
28
118
98
70
55
43
64
104
115
78
95
58
88
35
21
56
59
110
124
93
42
33
47
53
9
68
113
114
119
102
63
40
76
90
17
84
46
57
30
81
89
24
14
7
100
79
5
26
15
37
126
106
107
36
74
50
32
12
31
2
86
62
105
66
11
97
41
65
92
108
13
122

> <PUBCHEM_MMFF94_PARTIAL_CHARGES>
24
1 -0.02
11 0.27
12 0.06
13 0.18
14 0.27
18 0.18
2 -0.57
21 0.11
22 0.57
24 -0.04
25 -0.15
26 0.3
27 0.3
28 0.3
29 0.3
3 -0.57
30 0.57
31 0.06
4 -0.9
45 0.36
5 -0.66
58 0.15
6 -0.66
7 -0.41

> <PUBCHEM_EFFECTIVE_ROTOR_COUNT>
11.6

> <PUBCHEM_PHARMACOPHORE_FEATURES>
9
1 2 acceptor
1 3 acceptor
1 4 cation
1 4 donor
1 7 acceptor
5 1 7 21 24 25 rings
6 15 16 17 19 20 23 rings
6 4 8 9 10 11 14 rings
6 5 6 26 27 28 29 rings

> <PUBCHEM_HEAVY_ATOM_COUNT>
31

> <PUBCHEM_ATOM_DEF_STEREO_COUNT>
2

> <PUBCHEM_ATOM_UDEF_STEREO_COUNT>
0

> <PUBCHEM_BOND_DEF_STEREO_COUNT>
0

> <PUBCHEM_BOND_UDEF_STEREO_COUNT>
0

> <PUBCHEM_ISOTOPIC_ATOM_COUNT>
0

> <PUBCHEM_COMPONENT_COUNT>
1

> <PUBCHEM_CACTVS_TAUTO_COUNT>
1

> <PUBCHEM_CONFORMER_ID>
018241DA00000001

> <PUBCHEM_MMFF94_ENERGY>
43.0525

> <PUBCHEM_FEATURE_SELFOVERLAP>
45.672

> <PUBCHEM_SHAPE_FINGERPRINT>
10299344 5 18259705609775136847
10429389 143 12751245775126324499
10838868 229 17770510733326849102
10930396 42 16200141076053367714
11456790 92 18271539667243190105
11476731 38 18113904875760482030
11973863 73 18187641341204972714
12107183 9 18343303708370989039
12144603 126 18339367465444677964
12166972 35 17967531294515854012
12592606 108 18335701676286968907
12838863 1 17988637533177236213
13150687 139 8430321277031433752
13673619 4 17458056075630485429
13782708 43 18043528528779346239
14190465 44 9439109915597821276
14347424 109 18201998880347746288
14428016 204 13110958764979577834
14428016 545 18410292485138257197
14444916 359 17095243622971491507
14675019 173 18040435512613619629
14767858 380 10665225977800589203
15064981 194 11022667325498166288
15131766 46 15982260907791645104
15183329 4 18270410489960028965
15198563 99 15792002360445149847
15276724 80 18187930642092872717
15320294 125 18341891892043333902
15357212 105 12831138432894089991
15419008 145 18342178835246797209
19301679 30 18341898425068495998
19841028 212 18187081772229680842
20105231 36 15068623794975349099
21150785 3 8862942775411265103
21792934 111 18201995538567712952
23522609 53 18118147933333481669
24893992 56 18271530897157679123
2838139 119 18130510834276959309
3004659 81 17822283600994941838
3472631 163 8862938403751444114
4258327 124 10303802216252155378
439807 62 17967533467833069886
5219985 9 18409445890864739820
5381727 24 18272653468544261271
54039377 194 18187366502158234942
57527293 21 17059759140385449964
57527295 17 17908990155114768861
6058803 2 17555161824707978429

> <PUBCHEM_SHAPE_MULTIPOLES>
600.43
28
3.02
1.39
1.72
2.04
0.13
-18.96
-8.17
-1.15
-0.5
-0.81
-0.06
-3.15

> <PUBCHEM_SHAPE_SELFOVERLAP>
1239.973

> <PUBCHEM_SHAPE_VOLUME>
338.7

> <PUBCHEM_COORDINATE_TYPE>
2
5
10

$$$$
