56774237
  -OEChem-12032416323D

 57 59  0     1  0  0  0  0  0999 V2000
    3.0859   -2.2418   -0.3657 O   0  0  0  0  0  0  0  0  0  0  0  0
   -5.4142    0.6105   -1.2567 O   0  0  0  0  0  0  0  0  0  0  0  0
   -3.7205    1.1341    0.2390 N   0  0  0  0  0  0  0  0  0  0  0  0
    1.7453   -2.5696   -0.5273 N   0  0  0  0  0  0  0  0  0  0  0  0
   -5.8892    1.7663    0.7006 N   0  0  0  0  0  0  0  0  0  0  0  0
    4.8563    0.4768    0.4262 N   0  0  0  0  0  0  0  0  0  0  0  0
   -2.5938   -1.0178   -0.5357 C   0  0  0  0  0  0  0  0  0  0  0  0
   -1.0605   -0.9139   -0.3969 C   0  0  1  0  0  0  0  0  0  0  0  0
   -2.6228    0.5247   -0.5223 C   0  0  2  0  0  0  0  0  0  0  0  0
   -1.2900    0.4667    0.2529 C   0  0  0  0  0  0  0  0  0  0  0  0
   -0.3648   -1.9429    0.5040 C   0  0  0  0  0  0  0  0  0  0  0  0
   -3.2619   -1.7099    0.6319 C   0  0  0  0  0  0  0  0  0  0  0  0
   -3.1019   -1.6040   -1.8401 C   0  0  0  0  0  0  0  0  0  0  0  0
    1.0991   -1.8448    0.3905 C   0  0  0  0  0  0  0  0  0  0  0  0
   -5.0458    1.1243   -0.2012 C   0  0  0  0  0  0  0  0  0  0  0  0
    1.9715   -1.0487    1.1527 C   0  0  0  0  0  0  0  0  0  0  0  0
    3.2079   -1.3354    0.6375 C   0  0  0  0  0  0  0  0  0  0  0  0
    4.6029   -0.8643    0.9519 C   0  0  0  0  0  0  0  0  0  0  0  0
    5.9392    1.1272    1.1774 C   0  0  0  0  0  0  0  0  0  0  0  0
    5.1673    0.4162   -1.0089 C   0  0  0  0  0  0  0  0  0  0  0  0
    6.1841    2.5498    0.6722 C   0  0  0  0  0  0  0  0  0  0  0  0
    5.3868    1.8157   -1.5857 C   0  0  0  0  0  0  0  0  0  0  0  0
    6.4746    2.5647   -0.8243 C   0  0  0  0  0  0  0  0  0  0  0  0
   -7.3106    1.8949    0.4821 C   0  0  0  0  0  0  0  0  0  0  0  0
   -8.0450    0.6210    0.8457 C   0  0  0  0  0  0  0  0  0  0  0  0
   -0.5712   -0.8378   -1.3806 H   0  0  0  0  0  0  0  0  0  0  0  0
   -2.5113    0.9962   -1.5078 H   0  0  0  0  0  0  0  0  0  0  0  0
   -1.3871    0.4598    1.3453 H   0  0  0  0  0  0  0  0  0  0  0  0
   -0.5593    1.2343   -0.0199 H   0  0  0  0  0  0  0  0  0  0  0  0
   -0.6736   -2.9525    0.2025 H   0  0  0  0  0  0  0  0  0  0  0  0
   -0.6636   -1.8285    1.5528 H   0  0  0  0  0  0  0  0  0  0  0  0
   -4.3534   -1.6276    0.5705 H   0  0  0  0  0  0  0  0  0  0  0  0
   -2.9702   -1.2961    1.6031 H   0  0  0  0  0  0  0  0  0  0  0  0
   -3.0335   -2.7817    0.6478 H   0  0  0  0  0  0  0  0  0  0  0  0
   -4.1907   -1.5358   -1.9224 H   0  0  0  0  0  0  0  0  0  0  0  0
   -2.8327   -2.6634   -1.9203 H   0  0  0  0  0  0  0  0  0  0  0  0
   -2.6710   -1.0952   -2.7096 H   0  0  0  0  0  0  0  0  0  0  0  0
   -3.5318    1.5937    1.1259 H   0  0  0  0  0  0  0  0  0  0  0  0
    1.7382   -0.3663    1.9567 H   0  0  0  0  0  0  0  0  0  0  0  0
    4.6754   -0.8605    2.0483 H   0  0  0  0  0  0  0  0  0  0  0  0
    5.3460   -1.5920    0.6011 H   0  0  0  0  0  0  0  0  0  0  0  0
   -5.4938    2.1509    1.5529 H   0  0  0  0  0  0  0  0  0  0  0  0
    6.8673    0.5446    1.1064 H   0  0  0  0  0  0  0  0  0  0  0  0
    5.6728    1.1894    2.2397 H   0  0  0  0  0  0  0  0  0  0  0  0
    4.3399   -0.0436   -1.5619 H   0  0  0  0  0  0  0  0  0  0  0  0
    6.0603   -0.1965   -1.1909 H   0  0  0  0  0  0  0  0  0  0  0  0
    7.0241    2.9964    1.2160 H   0  0  0  0  0  0  0  0  0  0  0  0
    5.3028    3.1701    0.8794 H   0  0  0  0  0  0  0  0  0  0  0  0
    4.4492    2.3841   -1.5375 H   0  0  0  0  0  0  0  0  0  0  0  0
    5.6614    1.7413   -2.6440 H   0  0  0  0  0  0  0  0  0  0  0  0
    7.4459    2.0915   -1.0134 H   0  0  0  0  0  0  0  0  0  0  0  0
    6.5432    3.5971   -1.1842 H   0  0  0  0  0  0  0  0  0  0  0  0
   -7.4863    2.1436   -0.5698 H   0  0  0  0  0  0  0  0  0  0  0  0
   -7.6639    2.7276    1.0980 H   0  0  0  0  0  0  0  0  0  0  0  0
   -7.7118   -0.2213    0.2308 H   0  0  0  0  0  0  0  0  0  0  0  0
   -7.8720    0.3554    1.8940 H   0  0  0  0  0  0  0  0  0  0  0  0
   -9.1219    0.7460    0.6972 H   0  0  0  0  0  0  0  0  0  0  0  0
  1  4  1  0  0  0  0
  1 17  1  0  0  0  0
  2 15  2  0  0  0  0
  3  9  1  0  0  0  0
  3 15  1  0  0  0  0
  3 38  1  0  0  0  0
  4 14  2  0  0  0  0
  5 15  1  0  0  0  0
  5 24  1  0  0  0  0
  5 42  1  0  0  0  0
  6 18  1  0  0  0  0
  6 19  1  0  0  0  0
  6 20  1  0  0  0  0
  7  8  1  0  0  0  0
  7  9  1  0  0  0  0
  7 12  1  0  0  0  0
  7 13  1  0  0  0  0
  8 10  1  0  0  0  0
  8 11  1  0  0  0  0
  8 26  1  0  0  0  0
  9 10  1  0  0  0  0
  9 27  1  0  0  0  0
 10 28  1  0  0  0  0
 10 29  1  0  0  0  0
 11 14  1  0  0  0  0
 11 30  1  0  0  0  0
 11 31  1  0  0  0  0
 12 32  1  0  0  0  0
 12 33  1  0  0  0  0
 12 34  1  0  0  0  0
 13 35  1  0  0  0  0
 13 36  1  0  0  0  0
 13 37  1  0  0  0  0
 14 16  1  0  0  0  0
 16 17  2  0  0  0  0
 16 39  1  0  0  0  0
 17 18  1  0  0  0  0
 18 40  1  0  0  0  0
 18 41  1  0  0  0  0
 19 21  1  0  0  0  0
 19 43  1  0  0  0  0
 19 44  1  0  0  0  0
 20 22  1  0  0  0  0
 20 45  1  0  0  0  0
 20 46  1  0  0  0  0
 21 23  1  0  0  0  0
 21 47  1  0  0  0  0
 21 48  1  0  0  0  0
 22 23  1  0  0  0  0
 22 49  1  0  0  0  0
 22 50  1  0  0  0  0
 23 51  1  0  0  0  0
 23 52  1  0  0  0  0
 24 25  1  0  0  0  0
 24 53  1  0  0  0  0
 24 54  1  0  0  0  0
 25 55  1  0  0  0  0
 25 56  1  0  0  0  0
 25 57  1  0  0  0  0
M  END
> <PUBCHEM_COMPOUND_CID>
56774237

> <PUBCHEM_CONFORMER_RMSD>
1.2

> <PUBCHEM_CONFORMER_DIVERSEORDER>
1
48
88
32
56
21
52
31
84
69
76
68
66
93
72
14
67
19
43
78
53
33
47
28
44
79
64
95
5
41
60
85
91
15
34
50
38
12
39
18
57
37
73
29
89
23
90
46
92
20
82
70
51
45
30
27
24
22
49
13
3
11
35
17
7
63
8
2
36
75
40
25
26
61
10
42
81
4
55
9
6
87
16
80
65
71
94
54
86
59
62
83
77
58
74

> <PUBCHEM_MMFF94_PARTIAL_CHARGES>
19
1 -0.02
11 0.18
14 0.11
15 0.69
16 -0.15
17 -0.04
18 0.45
19 0.27
2 -0.57
20 0.27
24 0.3
3 -0.65
38 0.37
39 0.15
4 -0.41
42 0.37
5 -0.73
6 -0.81
9 0.22

> <PUBCHEM_EFFECTIVE_ROTOR_COUNT>
10

> <PUBCHEM_PHARMACOPHORE_FEATURES>
9
1 2 acceptor
1 3 donor
1 4 acceptor
1 5 donor
1 6 cation
3 7 12 13 hydrophobe
4 7 8 9 10 rings
5 1 4 14 16 17 rings
6 6 19 20 21 22 23 rings

> <PUBCHEM_HEAVY_ATOM_COUNT>
25

> <PUBCHEM_ATOM_DEF_STEREO_COUNT>
2

> <PUBCHEM_ATOM_UDEF_STEREO_COUNT>
0

> <PUBCHEM_BOND_DEF_STEREO_COUNT>
0

> <PUBCHEM_BOND_UDEF_STEREO_COUNT>
0

> <PUBCHEM_ISOTOPIC_ATOM_COUNT>
0

> <PUBCHEM_COMPONENT_COUNT>
1

> <PUBCHEM_CACTVS_TAUTO_COUNT>
3

> <PUBCHEM_CONFORMER_ID>
03624E5D00000001

> <PUBCHEM_MMFF94_ENERGY>
27.992

> <PUBCHEM_FEATURE_SELFOVERLAP>
45.72

> <PUBCHEM_SHAPE_FINGERPRINT>
10 15 17458348541481461329
10319926 262 13551459324797484806
10670039 82 18334582369708645276
10906281 52 18131075896779257743
10981352 41 11818991890211005808
11273773 42 18411980303594648789
12539765 74 17916311542053294743
12633257 1 15286191947982113844
13782708 43 9943804487067360659
13914758 101 11240005542723952331
13955234 65 17896876552366245890
14168556 18 18335145345278811523
14216079 64 9583517612163193577
14251764 18 18410011044758551293
14394314 77 18335140950937326868
14461889 52 17821738238568712091
14565420 104 17968095283266311939
14790565 3 18126568920959862017
14849402 71 18342178878217842193
14919807 6 12607136046127761329
15183329 4 13398633840002776131
15188451 53 11530480038543960413
15475509 8 14549022061677770643
15519825 34 15575006129894919713
155225 6 18115315621624683532
15685185 35 18264213689170052500
15840311 113 18336550396379309845
16760501 71 18187652409573122837
16992752 21 17986945436253788127
17810953 82 18334294275976211044
17980427 23 18113900502408128335
20567600 234 17022628575957284813
21298829 104 18409165554292252852
21304304 249 8358259254645022264
21315764 119 13542458761636526617
21344244 78 14779552270510914990
22079108 93 17386009442586798235
23389318 12 18340477942635410343
23559900 14 11311474910688571087
270888 7 18410009975021771608
2748736 6 18335974333400285500
2838139 119 18260817216558014452
29717793 49 12535336900776509963
3014063 24 8718828682409619016
3472631 163 18343866627953833868
34797466 226 18131075891872289791
3680242 22 17822282505799607696
397830 11 17749404675781053715
4258327 124 18342179986118125425
4403749 210 18259704485675230651
44317340 157 18272094885554364670
444735 82 18262522485999987229
445580 126 18410004434551045864
445580 167 18341606028311204903
474113 269 8070034341997302225
5104073 3 17894345592589193546
54583773 228 18412258476938793173
5718773 13 9079115553061224665
57307002 182 16081380690554074414
59682541 35 18041287621508340385
59682541 52 16702030747117572044
6438161 24 10519982634522554908
6898599 12 18130219479604389639
7970288 3 9871486309243804252
960060 61 13830137226290735690

> <PUBCHEM_SHAPE_MULTIPOLES>
482.83
20.75
2.9
1.3
10.55
0.05
0.33
19.63
-2.12
-2.13
0.09
-0.52
0.04
-1.58

> <PUBCHEM_SHAPE_SELFOVERLAP>
989.418

> <PUBCHEM_SHAPE_VOLUME>
281.2

> <PUBCHEM_COORDINATE_TYPE>
2
5
10

$$$$
