38027267
  -OEChem-12032416263D

 66 67  0     1  0  0  0  0  0999 V2000
   -1.7341    3.2458    0.5868 O   0  0  0  0  0  0  0  0  0  0  0  0
    1.6258   -2.8536   -1.4820 O   0  0  0  0  0  0  0  0  0  0  0  0
   -2.4883    1.0586    0.8061 N   0  0  0  0  0  0  0  0  0  0  0  0
    2.4967   -1.5961    0.2674 N   0  0  0  0  0  0  0  0  0  0  0  0
    0.9395   -3.2507    0.6985 N   0  0  0  0  0  0  0  0  0  0  0  0
    1.5889    1.0046   -0.9394 C   0  0  1  0  0  0  0  0  0  0  0  0
    2.9895    0.7128   -0.3450 C   0  0  1  0  0  0  0  0  0  0  0  0
    1.0492    2.3414   -0.4085 C   0  0  0  0  0  0  0  0  0  0  0  0
    0.9403    2.3570    1.1279 C   0  0  2  0  0  0  0  0  0  0  0  0
    1.6144    1.0269   -2.4708 C   0  0  0  0  0  0  0  0  0  0  0  0
    2.1968    1.8250    1.7868 C   0  0  0  0  0  0  0  0  0  0  0  0
    3.1076    1.1037    1.1095 C   0  0  0  0  0  0  0  0  0  0  0  0
   -0.2965    1.5856    1.6019 C   0  0  0  0  0  0  0  0  0  0  0  0
    3.3628   -0.7649   -0.5086 C   0  0  0  0  0  0  0  0  0  0  0  0
   -3.7892    1.2462    0.2125 C   0  0  0  0  0  0  0  0  0  0  0  0
    0.2304    0.7139   -3.0306 C   0  0  0  0  0  0  0  0  0  0  0  0
    2.1088    2.3789   -2.9751 C   0  0  0  0  0  0  0  0  0  0  0  0
   -4.8035    0.2467    0.7533 C   0  0  0  0  0  0  0  0  0  0  0  0
   -3.7813    0.9446   -1.2814 C   0  0  0  0  0  0  0  0  0  0  0  0
    2.4055    2.1802    3.2327 C   0  0  0  0  0  0  0  0  0  0  0  0
   -1.5636    2.0833    0.9439 C   0  0  0  0  0  0  0  0  0  0  0  0
   -4.5586   -1.0241   -0.0556 C   0  0  0  0  0  0  0  0  0  0  0  0
   -3.9413   -0.5716   -1.3791 C   0  0  0  0  0  0  0  0  0  0  0  0
    1.6796   -2.5931   -0.2808 C   0  0  0  0  0  0  0  0  0  0  0  0
    0.0190   -4.3215    0.3966 C   0  0  0  0  0  0  0  0  0  0  0  0
   -1.3626   -3.7602    0.0866 C   0  0  0  0  0  0  0  0  0  0  0  0
   -0.0358   -5.3196    1.5464 C   0  0  0  0  0  0  0  0  0  0  0  0
    0.8965    0.2165   -0.6185 H   0  0  0  0  0  0  0  0  0  0  0  0
    3.7450    1.3004   -0.8814 H   0  0  0  0  0  0  0  0  0  0  0  0
    0.1025    2.6019   -0.8872 H   0  0  0  0  0  0  0  0  0  0  0  0
    1.7443    3.1551   -0.6562 H   0  0  0  0  0  0  0  0  0  0  0  0
    0.8218    3.4099    1.4204 H   0  0  0  0  0  0  0  0  0  0  0  0
    2.2903    0.2548   -2.8525 H   0  0  0  0  0  0  0  0  0  0  0  0
    4.0144    0.7878    1.6219 H   0  0  0  0  0  0  0  0  0  0  0  0
   -0.4356    1.7080    2.6830 H   0  0  0  0  0  0  0  0  0  0  0  0
   -0.1687    0.5116    1.4189 H   0  0  0  0  0  0  0  0  0  0  0  0
    4.3802   -0.9407   -0.1382 H   0  0  0  0  0  0  0  0  0  0  0  0
    3.3549   -1.0757   -1.5566 H   0  0  0  0  0  0  0  0  0  0  0  0
   -4.1107    2.2762    0.4011 H   0  0  0  0  0  0  0  0  0  0  0  0
   -0.5128    1.4637   -2.7436 H   0  0  0  0  0  0  0  0  0  0  0  0
   -0.1219   -0.2636   -2.6837 H   0  0  0  0  0  0  0  0  0  0  0  0
    0.2592    0.6830   -4.1254 H   0  0  0  0  0  0  0  0  0  0  0  0
    1.3741    3.1811   -2.8493 H   0  0  0  0  0  0  0  0  0  0  0  0
    2.2953    2.3134   -4.0543 H   0  0  0  0  0  0  0  0  0  0  0  0
    3.0551    2.6808   -2.5166 H   0  0  0  0  0  0  0  0  0  0  0  0
   -5.8203    0.6084    0.5565 H   0  0  0  0  0  0  0  0  0  0  0  0
   -4.7106    0.0709    1.8297 H   0  0  0  0  0  0  0  0  0  0  0  0
   -2.8792    1.2942   -1.7928 H   0  0  0  0  0  0  0  0  0  0  0  0
   -4.6442    1.4260   -1.7581 H   0  0  0  0  0  0  0  0  0  0  0  0
    2.3786    3.2667    3.3648 H   0  0  0  0  0  0  0  0  0  0  0  0
    3.3713    1.8268    3.6091 H   0  0  0  0  0  0  0  0  0  0  0  0
    1.6260    1.7335    3.8571 H   0  0  0  0  0  0  0  0  0  0  0  0
   -5.4859   -1.5854   -0.2090 H   0  0  0  0  0  0  0  0  0  0  0  0
   -3.8614   -1.6839    0.4732 H   0  0  0  0  0  0  0  0  0  0  0  0
   -2.9657   -1.0512   -1.5184 H   0  0  0  0  0  0  0  0  0  0  0  0
   -4.5665   -0.8483   -2.2342 H   0  0  0  0  0  0  0  0  0  0  0  0
   -2.2330    0.1196    1.0978 H   0  0  0  0  0  0  0  0  0  0  0  0
    2.5191   -1.5086    1.2789 H   0  0  0  0  0  0  0  0  0  0  0  0
    0.9944   -2.9108    1.6540 H   0  0  0  0  0  0  0  0  0  0  0  0
    0.3847   -4.8442   -0.4956 H   0  0  0  0  0  0  0  0  0  0  0  0
   -1.7662   -3.2073    0.9422 H   0  0  0  0  0  0  0  0  0  0  0  0
   -1.3236   -3.0682   -0.7618 H   0  0  0  0  0  0  0  0  0  0  0  0
   -2.0649   -4.5619   -0.1642 H   0  0  0  0  0  0  0  0  0  0  0  0
   -0.3912   -4.8458    2.4684 H   0  0  0  0  0  0  0  0  0  0  0  0
    0.9588   -5.7315    1.7501 H   0  0  0  0  0  0  0  0  0  0  0  0
   -0.7061   -6.1527    1.3106 H   0  0  0  0  0  0  0  0  0  0  0  0
  1 21  2  0  0  0  0
  2 24  2  0  0  0  0
  3 15  1  0  0  0  0
  3 21  1  0  0  0  0
  3 57  1  0  0  0  0
  4 14  1  0  0  0  0
  4 24  1  0  0  0  0
  4 58  1  0  0  0  0
  5 24  1  0  0  0  0
  5 25  1  0  0  0  0
  5 59  1  0  0  0  0
  6  7  1  0  0  0  0
  6  8  1  0  0  0  0
  6 10  1  0  0  0  0
  6 28  1  0  0  0  0
  7 12  1  0  0  0  0
  7 14  1  0  0  0  0
  7 29  1  0  0  0  0
  8  9  1  0  0  0  0
  8 30  1  0  0  0  0
  8 31  1  0  0  0  0
  9 11  1  0  0  0  0
  9 13  1  0  0  0  0
  9 32  1  0  0  0  0
 10 16  1  0  0  0  0
 10 17  1  0  0  0  0
 10 33  1  0  0  0  0
 11 12  2  0  0  0  0
 11 20  1  0  0  0  0
 12 34  1  0  0  0  0
 13 21  1  0  0  0  0
 13 35  1  0  0  0  0
 13 36  1  0  0  0  0
 14 37  1  0  0  0  0
 14 38  1  0  0  0  0
 15 18  1  0  0  0  0
 15 19  1  0  0  0  0
 15 39  1  0  0  0  0
 16 40  1  0  0  0  0
 16 41  1  0  0  0  0
 16 42  1  0  0  0  0
 17 43  1  0  0  0  0
 17 44  1  0  0  0  0
 17 45  1  0  0  0  0
 18 22  1  0  0  0  0
 18 46  1  0  0  0  0
 18 47  1  0  0  0  0
 19 23  1  0  0  0  0
 19 48  1  0  0  0  0
 19 49  1  0  0  0  0
 20 50  1  0  0  0  0
 20 51  1  0  0  0  0
 20 52  1  0  0  0  0
 22 23  1  0  0  0  0
 22 53  1  0  0  0  0
 22 54  1  0  0  0  0
 23 55  1  0  0  0  0
 23 56  1  0  0  0  0
 25 26  1  0  0  0  0
 25 27  1  0  0  0  0
 25 60  1  0  0  0  0
 26 61  1  0  0  0  0
 26 62  1  0  0  0  0
 26 63  1  0  0  0  0
 27 64  1  0  0  0  0
 27 65  1  0  0  0  0
 27 66  1  0  0  0  0
M  END
> <PUBCHEM_COMPOUND_CID>
38027267

> <PUBCHEM_CONFORMER_RMSD>
1

> <PUBCHEM_CONFORMER_DIVERSEORDER>
1
225
38
77
16
80
36
117
214
171
39
128
212
67
14
6
52
125
147
201
211
35
223
68
104
116
203
89
81
42
64
105
57
179
99
184
178
43
152
187
32
103
126
200
101
222
13
137
206
110
219
78
5
136
188
65
51
134
209
17
50
58
155
129
69
192
157
19
90
28
181
61
120
172
227
189
83
156
70
118
91
75
183
86
197
160
53
161
121
93
74
33
15
72
162
23
27
133
166
7
123
180
106
109
41
199
71
127
11
204
97
176
142
25
48
29
44
135
40
154
153
31
37
224
84
79
193
76
177
167
59
34
95
194
220
164
218
217
213
24
55
92
182
226
10
122
143
170
208
221
196
190
47
175
195
146
9
66
191
21
18
139
73
63
30
22
4
112
82
205
85
130
49
96
108
140
210
173
94
113
138
169
159
107
145
215
202
46
20
144
198
54
185
60
2
62
3
216
87
163
88
141
26
114
148
168
151
150
149
100
102
111
8
165
158
115
186
207
119
124
131
45
56
174
12
98
132

> <PUBCHEM_MMFF94_PARTIAL_CHARGES>
20
1 -0.57
11 -0.28
12 -0.29
13 0.06
14 0.3
15 0.3
2 -0.57
20 0.14
21 0.57
24 0.69
25 0.3
3 -0.73
34 0.15
4 -0.73
5 -0.73
57 0.37
58 0.37
59 0.37
7 0.14
9 0.14

> <PUBCHEM_EFFECTIVE_ROTOR_COUNT>
11.8

> <PUBCHEM_PHARMACOPHORE_FEATURES>
9
1 1 acceptor
1 2 acceptor
1 3 donor
1 4 donor
1 5 donor
3 10 16 17 hydrophobe
3 25 26 27 hydrophobe
5 15 18 19 22 23 rings
6 6 7 8 9 11 12 rings

> <PUBCHEM_HEAVY_ATOM_COUNT>
27

> <PUBCHEM_ATOM_DEF_STEREO_COUNT>
3

> <PUBCHEM_ATOM_UDEF_STEREO_COUNT>
0

> <PUBCHEM_BOND_DEF_STEREO_COUNT>
0

> <PUBCHEM_BOND_UDEF_STEREO_COUNT>
0

> <PUBCHEM_ISOTOPIC_ATOM_COUNT>
0

> <PUBCHEM_COMPONENT_COUNT>
1

> <PUBCHEM_CACTVS_TAUTO_COUNT>
6

> <PUBCHEM_CONFORMER_ID>
0244400300000001

> <PUBCHEM_MMFF94_ENERGY>
41.5519

> <PUBCHEM_FEATURE_SELFOVERLAP>
45.719

> <PUBCHEM_SHAPE_FINGERPRINT>
10064457 181 18336825411086708806
10316853 100 18049725423927494891
108634 29 18055070118988108558
11221954 11 13004579274981816146
114674 6 18343294881759645465
12156800 1 17544482306885639588
13122387 1 17978513031670351739
13583140 156 17986090955618578125
14787075 74 18131354090427522824
14863182 85 18408325492568345633
16114785 44 15976061981303651200
19315092 285 17190875845635636911
20764821 26 17979074109139299331
20775530 9 17617659852163509619
21304303 282 16381152885440358892
238 59 18262818318376329912
25222932 49 17772729797342006743
3052486 1 17905046211285279728
35225 105 17835803379999724071
463206 1 18342464707736840123
469060 322 17464835467297602270
59444896 2 16883561452667692908

> <PUBCHEM_SHAPE_MULTIPOLES>
528.97
6.92
5.71
2.73
7.89
10.15
-0.9
-3
0.07
1.5
2.14
-2.44
-1.85
0.56

> <PUBCHEM_SHAPE_SELFOVERLAP>
1060.495

> <PUBCHEM_SHAPE_VOLUME>
311.4

> <PUBCHEM_COORDINATE_TYPE>
2
5
10

$$$$
