26762199
  -OEChem-12032416173D

 61 64  0     1  0  0  0  0  0999 V2000
   -4.2790    1.5266    2.2906 O   0  0  0  0  0  0  0  0  0  0  0  0
    1.8047    3.6475    0.2293 O   0  0  0  0  0  0  0  0  0  0  0  0
   -1.7471   -3.7437   -1.4628 O   0  0  0  0  0  0  0  0  0  0  0  0
   -2.5940    0.9145   -0.6400 N   0  0  2  0  0  0  0  0  0  0  0  0
   -3.3147    3.0490    0.8437 N   0  0  0  0  0  0  0  0  0  0  0  0
   -2.1243   -2.0578    0.0889 N   0  0  0  0  0  0  0  0  0  0  0  0
    2.0108    1.3258    0.1094 N   0  0  0  0  0  0  0  0  0  0  0  0
   -0.5527   -3.6801    0.5254 N   0  0  0  0  0  0  0  0  0  0  0  0
   -3.9159    0.8780   -0.0177 C   0  0  1  0  0  0  0  0  0  0  0  0
   -2.2719    2.2023   -1.2605 C   0  0  1  0  0  0  0  0  0  0  0  0
   -3.1775   -1.3350   -0.6690 C   0  0  1  0  0  0  0  0  0  0  0  0
   -4.1019   -0.5993    0.3086 C   0  0  0  0  0  0  0  0  0  0  0  0
   -2.5407   -0.2436   -1.5270 C   0  0  0  0  0  0  0  0  0  0  0  0
   -2.9721    3.3710   -0.5308 C   0  0  0  0  0  0  0  0  0  0  0  0
   -0.7531    2.3933   -1.2304 C   0  0  0  0  0  0  0  0  0  0  0  0
   -3.8579    1.8146    1.1744 C   0  0  0  0  0  0  0  0  0  0  0  0
   -0.1943    2.3749    0.1844 C   0  0  0  0  0  0  0  0  0  0  0  0
    1.3091    2.5217    0.1767 C   0  0  0  0  0  0  0  0  0  0  0  0
   -1.4980   -3.2099   -0.3826 C   0  0  0  0  0  0  0  0  0  0  0  0
    1.4131   -0.0245    0.0465 C   0  0  0  0  0  0  0  0  0  0  0  0
    3.4147    1.1912    0.0881 C   0  0  0  0  0  0  0  0  0  0  0  0
    2.5590   -1.0407   -0.0090 C   0  0  0  0  0  0  0  0  0  0  0  0
    3.7641   -0.1591    0.0191 C   0  0  0  0  0  0  0  0  0  0  0  0
    0.2424   -4.8615    0.2860 C   0  0  0  0  0  0  0  0  0  0  0  0
    4.3941    2.1729    0.1253 C   0  0  0  0  0  0  0  0  0  0  0  0
    5.0913   -0.5597   -0.0139 C   0  0  0  0  0  0  0  0  0  0  0  0
    5.7352    1.7776    0.0919 C   0  0  0  0  0  0  0  0  0  0  0  0
    0.5576   -5.5629    1.6008 C   0  0  0  0  0  0  0  0  0  0  0  0
    1.5170   -4.5042   -0.4685 C   0  0  0  0  0  0  0  0  0  0  0  0
    6.0820    0.4212    0.0229 C   0  0  0  0  0  0  0  0  0  0  0  0
   -4.7064    1.2091   -0.7048 H   0  0  0  0  0  0  0  0  0  0  0  0
   -2.5990    2.2307   -2.3084 H   0  0  0  0  0  0  0  0  0  0  0  0
   -3.7209   -2.0620   -1.2816 H   0  0  0  0  0  0  0  0  0  0  0  0
   -3.8758   -0.8385    1.3540 H   0  0  0  0  0  0  0  0  0  0  0  0
   -5.1442   -0.8878    0.1288 H   0  0  0  0  0  0  0  0  0  0  0  0
   -1.5206   -0.4868   -1.8394 H   0  0  0  0  0  0  0  0  0  0  0  0
   -3.1522   -0.0761   -2.4227 H   0  0  0  0  0  0  0  0  0  0  0  0
   -2.3776    4.2902   -0.5313 H   0  0  0  0  0  0  0  0  0  0  0  0
   -3.9227    3.5930   -1.0313 H   0  0  0  0  0  0  0  0  0  0  0  0
   -0.4958    3.3475   -1.7093 H   0  0  0  0  0  0  0  0  0  0  0  0
   -0.2687    1.6257   -1.8452 H   0  0  0  0  0  0  0  0  0  0  0  0
   -3.2536    3.7704    1.5556 H   0  0  0  0  0  0  0  0  0  0  0  0
   -1.7844   -1.6440    0.9518 H   0  0  0  0  0  0  0  0  0  0  0  0
   -0.5761    3.2290    0.7571 H   0  0  0  0  0  0  0  0  0  0  0  0
   -0.4962    1.4909    0.7494 H   0  0  0  0  0  0  0  0  0  0  0  0
    0.7730   -0.1040   -0.8366 H   0  0  0  0  0  0  0  0  0  0  0  0
    0.7967   -0.1918    0.9365 H   0  0  0  0  0  0  0  0  0  0  0  0
    2.5202   -1.6284   -0.9307 H   0  0  0  0  0  0  0  0  0  0  0  0
    2.5374   -1.7015    0.8624 H   0  0  0  0  0  0  0  0  0  0  0  0
   -0.3628   -3.1257    1.3549 H   0  0  0  0  0  0  0  0  0  0  0  0
   -0.3453   -5.5446   -0.3391 H   0  0  0  0  0  0  0  0  0  0  0  0
    4.1628    3.2296    0.1787 H   0  0  0  0  0  0  0  0  0  0  0  0
    5.3581   -1.6099   -0.0668 H   0  0  0  0  0  0  0  0  0  0  0  0
    6.5187    2.5304    0.1199 H   0  0  0  0  0  0  0  0  0  0  0  0
   -0.3646   -5.8368    2.1251 H   0  0  0  0  0  0  0  0  0  0  0  0
    1.1338   -6.4778    1.4282 H   0  0  0  0  0  0  0  0  0  0  0  0
    1.1363   -4.9159    2.2694 H   0  0  0  0  0  0  0  0  0  0  0  0
    2.0670   -5.4098   -0.7462 H   0  0  0  0  0  0  0  0  0  0  0  0
    2.1805   -3.8905    0.1467 H   0  0  0  0  0  0  0  0  0  0  0  0
    1.2949   -3.9495   -1.3862 H   0  0  0  0  0  0  0  0  0  0  0  0
    7.1295    0.1336   -0.0019 H   0  0  0  0  0  0  0  0  0  0  0  0
  1 16  2  0  0  0  0
  2 18  2  0  0  0  0
  3 19  2  0  0  0  0
  4  9  1  0  0  0  0
  4 10  1  0  0  0  0
  4 13  1  0  0  0  0
  5 14  1  0  0  0  0
  5 16  1  0  0  0  0
  5 42  1  0  0  0  0
  6 11  1  0  0  0  0
  6 19  1  0  0  0  0
  6 43  1  0  0  0  0
  7 18  1  0  0  0  0
  7 20  1  0  0  0  0
  7 21  1  0  0  0  0
  8 19  1  0  0  0  0
  8 24  1  0  0  0  0
  8 50  1  0  0  0  0
  9 12  1  0  0  0  0
  9 16  1  0  0  0  0
  9 31  1  0  0  0  0
 10 14  1  0  0  0  0
 10 15  1  0  0  0  0
 10 32  1  0  0  0  0
 11 12  1  0  0  0  0
 11 13  1  0  0  0  0
 11 33  1  0  0  0  0
 12 34  1  0  0  0  0
 12 35  1  0  0  0  0
 13 36  1  0  0  0  0
 13 37  1  0  0  0  0
 14 38  1  0  0  0  0
 14 39  1  0  0  0  0
 15 17  1  0  0  0  0
 15 40  1  0  0  0  0
 15 41  1  0  0  0  0
 17 18  1  0  0  0  0
 17 44  1  0  0  0  0
 17 45  1  0  0  0  0
 20 22  1  0  0  0  0
 20 46  1  0  0  0  0
 20 47  1  0  0  0  0
 21 23  1  0  0  0  0
 21 25  2  0  0  0  0
 22 23  1  0  0  0  0
 22 48  1  0  0  0  0
 22 49  1  0  0  0  0
 23 26  2  0  0  0  0
 24 28  1  0  0  0  0
 24 29  1  0  0  0  0
 24 51  1  0  0  0  0
 25 27  1  0  0  0  0
 25 52  1  0  0  0  0
 26 30  1  0  0  0  0
 26 53  1  0  0  0  0
 27 30  2  0  0  0  0
 27 54  1  0  0  0  0
 28 55  1  0  0  0  0
 28 56  1  0  0  0  0
 28 57  1  0  0  0  0
 29 58  1  0  0  0  0
 29 59  1  0  0  0  0
 29 60  1  0  0  0  0
 30 61  1  0  0  0  0
M  END
> <PUBCHEM_COMPOUND_CID>
26762199

> <PUBCHEM_CONFORMER_RMSD>
1.2

> <PUBCHEM_CONFORMER_DIVERSEORDER>
3
145
58
47
34
138
71
17
4
112
151
147
77
12
50
70
141
26
125
51
27
82
115
56
129
35
149
102
105
15
19
64
120
146
158
150
68
100
110
155
60
73
61
131
65
29
79
78
33
24
126
99
140
1
62
93
91
130
123
32
142
108
121
98
75
95
9
143
117
10
113
41
53
118
139
94
116
28
87
101
152
69
154
114
40
122
31
48
20
89
8
133
84
42
37
107
88
109
128
81
97
134
135
39
72
54
25
156
46
21
137
23
86
59
144
124
43
16
44
74
36
45
157
55
49
106
111
11
7
136
38
90
66
83
30
132
103
22
127
6
2
5
104
13
148
85
153
92
57
76
67
119
52
80
96
14
18
63

> <PUBCHEM_MMFF94_PARTIAL_CHARGES>
33
1 -0.57
10 0.27
11 0.3
13 0.27
14 0.3
16 0.57
17 0.06
18 0.57
19 0.69
2 -0.57
20 0.3
21 0.12
22 0.14
23 -0.14
24 0.3
25 -0.15
26 -0.15
27 -0.15
3 -0.57
30 -0.15
4 -0.81
42 0.37
43 0.37
5 -0.73
50 0.37
52 0.15
53 0.15
54 0.15
6 -0.73
61 0.15
7 -0.48
8 -0.73
9 0.33

> <PUBCHEM_EFFECTIVE_ROTOR_COUNT>
9.8

> <PUBCHEM_PHARMACOPHORE_FEATURES>
12
1 1 acceptor
1 2 acceptor
1 3 acceptor
1 4 cation
1 5 donor
1 6 donor
1 8 donor
3 24 28 29 hydrophobe
5 4 9 11 12 13 rings
5 7 20 21 22 23 rings
6 21 23 25 26 27 30 rings
6 4 5 9 10 14 16 rings

> <PUBCHEM_HEAVY_ATOM_COUNT>
30

> <PUBCHEM_ATOM_DEF_STEREO_COUNT>
3

> <PUBCHEM_ATOM_UDEF_STEREO_COUNT>
0

> <PUBCHEM_BOND_DEF_STEREO_COUNT>
0

> <PUBCHEM_BOND_UDEF_STEREO_COUNT>
0

> <PUBCHEM_ISOTOPIC_ATOM_COUNT>
0

> <PUBCHEM_COMPONENT_COUNT>
1

> <PUBCHEM_CACTVS_TAUTO_COUNT>
9

> <PUBCHEM_CONFORMER_ID>
01985BD700000003

> <PUBCHEM_MMFF94_ENERGY>
72.9708

> <PUBCHEM_FEATURE_SELFOVERLAP>
61.126

> <PUBCHEM_SHAPE_FINGERPRINT>
11014199 57 17616256218407487050
11285246 1 17404254932080921207
11552529 35 17985542492557483252
12166972 35 11887655283005520161
12633257 1 18272098201184935217
138480 1 17473820628515691998
13947930 73 17027694211180100499
14251757 5 18264211499110706294
14363568 33 17907029378016830427
14659021 117 18121765390865018048
14765038 42 18271259247958521920
14790565 3 18410859841538557900
15021287 119 17240474828613814292
15320467 1 18266175209339537086
15463212 79 18337100241717662930
15927050 60 18340762621050971335
16112460 7 18270405980128356570
16719943 64 18408880754957873530
17627616 140 18192708943021395366
20764821 26 18266449915548055310
20775530 9 17760921144837462027
21796203 349 17116103303853939778
3633792 109 18340474643800444245
3882209 13 16974168941473609646
4616759 239 17987225815712982800
463206 1 17616249621126411927
469060 322 16226320551185166107
5265222 85 18335718121795795708
57091435 65 17976260140523562123

> <PUBCHEM_SHAPE_MULTIPOLES>
574.87
10.32
7.04
1.2
10.38
11.35
-0.21
-7.22
-1.32
-0.98
-1.07
-1.44
0.16
-0.72

> <PUBCHEM_SHAPE_SELFOVERLAP>
1215.854

> <PUBCHEM_SHAPE_VOLUME>
322.1

> <PUBCHEM_COORDINATE_TYPE>
2
5
10

$$$$
