26742081
  -OEChem-12032416173D

 56 58  0     1  0  0  0  0  0999 V2000
    3.9159    0.4867    0.0024 F   0  0  0  0  0  0  0  0  0  0  0  0
    4.7408    2.4983   -0.0262 F   0  0  0  0  0  0  0  0  0  0  0  0
    3.8531    1.6555   -1.8233 F   0  0  0  0  0  0  0  0  0  0  0  0
   -4.1051   -2.8471    1.1992 O   0  0  0  0  0  0  0  0  0  0  0  0
   -2.8561    2.9163    0.5074 O   0  0  0  0  0  0  0  0  0  0  0  0
   -1.0349   -2.7475   -1.9399 O   0  0  0  0  0  0  0  0  0  0  0  0
    4.4211   -2.5108    1.2559 O   0  0  0  0  0  0  0  0  0  0  0  0
   -3.5414    1.0474   -0.6678 N   0  0  0  0  0  0  0  0  0  0  0  0
   -1.7240   -1.5616   -0.0711 N   0  0  0  0  0  0  0  0  0  0  0  0
   -1.2409    1.5373   -0.4338 N   0  0  0  0  0  0  0  0  0  0  0  0
   -3.1130   -1.4265   -0.4653 C   0  0  1  0  0  0  0  0  0  0  0  0
   -3.9972   -1.4754    0.7944 C   0  0  1  0  0  0  0  0  0  0  0  0
   -5.4240   -0.9438    0.6272 C   0  0  0  0  0  0  0  0  0  0  0  0
   -3.2979   -0.2121   -1.3839 C   0  0  0  0  0  0  0  0  0  0  0  0
   -5.5231    0.5775    0.7607 C   0  0  0  0  0  0  0  0  0  0  0  0
   -4.9515    1.3536   -0.4194 C   0  0  0  0  0  0  0  0  0  0  0  0
   -2.5521    1.9156   -0.1465 C   0  0  0  0  0  0  0  0  0  0  0  0
   -0.7965   -2.2202   -0.8566 C   0  0  0  0  0  0  0  0  0  0  0  0
    0.5788   -2.2952   -0.2999 C   0  0  0  0  0  0  0  0  0  0  0  0
   -0.0421    2.1932   -0.0555 C   0  0  0  0  0  0  0  0  0  0  0  0
    1.6735   -2.4022   -1.1578 C   0  0  0  0  0  0  0  0  0  0  0  0
    0.7753   -2.2607    1.0806 C   0  0  0  0  0  0  0  0  0  0  0  0
    1.1918    1.6659   -0.4362 C   0  0  0  0  0  0  0  0  0  0  0  0
   -0.0970    3.3663    0.6971 C   0  0  0  0  0  0  0  0  0  0  0  0
    2.3709    2.3117   -0.0644 C   0  0  0  0  0  0  0  0  0  0  0  0
    2.9646   -2.4748   -0.6352 C   0  0  0  0  0  0  0  0  0  0  0  0
    2.0665   -2.3334    1.6034 C   0  0  0  0  0  0  0  0  0  0  0  0
    3.1612   -2.4404    0.7454 C   0  0  0  0  0  0  0  0  0  0  0  0
    1.0822    4.0121    1.0691 C   0  0  0  0  0  0  0  0  0  0  0  0
    2.3160    3.4849    0.6884 C   0  0  0  0  0  0  0  0  0  0  0  0
    3.6906    1.7482   -0.4704 C   0  0  0  0  0  0  0  0  0  0  0  0
    5.4945   -2.6184    0.3220 C   0  0  0  0  0  0  0  0  0  0  0  0
   -3.3393   -2.3132   -1.0734 H   0  0  0  0  0  0  0  0  0  0  0  0
   -3.5080   -0.9473    1.6228 H   0  0  0  0  0  0  0  0  0  0  0  0
   -6.0624   -1.3830    1.4054 H   0  0  0  0  0  0  0  0  0  0  0  0
   -5.8531   -1.2818   -0.3241 H   0  0  0  0  0  0  0  0  0  0  0  0
   -2.4514   -0.0926   -2.0680 H   0  0  0  0  0  0  0  0  0  0  0  0
   -4.1614   -0.3919   -2.0370 H   0  0  0  0  0  0  0  0  0  0  0  0
   -6.5809    0.8484    0.8651 H   0  0  0  0  0  0  0  0  0  0  0  0
   -5.0281    0.8950    1.6869 H   0  0  0  0  0  0  0  0  0  0  0  0
   -5.5231    1.1486   -1.3321 H   0  0  0  0  0  0  0  0  0  0  0  0
   -5.0654    2.4254   -0.2217 H   0  0  0  0  0  0  0  0  0  0  0  0
   -1.4255   -1.0546    0.7558 H   0  0  0  0  0  0  0  0  0  0  0  0
   -4.5515   -2.8653    2.0630 H   0  0  0  0  0  0  0  0  0  0  0  0
   -1.0904    0.6836   -0.9585 H   0  0  0  0  0  0  0  0  0  0  0  0
    1.5396   -2.4248   -2.2361 H   0  0  0  0  0  0  0  0  0  0  0  0
   -0.0510   -2.2078    1.7835 H   0  0  0  0  0  0  0  0  0  0  0  0
    1.2389    0.7553   -1.0280 H   0  0  0  0  0  0  0  0  0  0  0  0
   -1.0065    3.8417    1.0332 H   0  0  0  0  0  0  0  0  0  0  0  0
    3.7695   -2.5542   -1.3578 H   0  0  0  0  0  0  0  0  0  0  0  0
    2.2135   -2.3121    2.6798 H   0  0  0  0  0  0  0  0  0  0  0  0
    1.0408    4.9256    1.6553 H   0  0  0  0  0  0  0  0  0  0  0  0
    3.2225    4.0031    0.9885 H   0  0  0  0  0  0  0  0  0  0  0  0
    6.4230   -2.6631    0.9006 H   0  0  0  0  0  0  0  0  0  0  0  0
    5.5604   -1.7334   -0.3198 H   0  0  0  0  0  0  0  0  0  0  0  0
    5.4331   -3.5467   -0.2561 H   0  0  0  0  0  0  0  0  0  0  0  0
  1 31  1  0  0  0  0
  2 31  1  0  0  0  0
  3 31  1  0  0  0  0
  4 12  1  0  0  0  0
  4 44  1  0  0  0  0
  5 17  2  0  0  0  0
  6 18  2  0  0  0  0
  7 28  1  0  0  0  0
  7 32  1  0  0  0  0
  8 14  1  0  0  0  0
  8 16  1  0  0  0  0
  8 17  1  0  0  0  0
  9 11  1  0  0  0  0
  9 18  1  0  0  0  0
  9 43  1  0  0  0  0
 10 17  1  0  0  0  0
 10 20  1  0  0  0  0
 10 45  1  0  0  0  0
 11 12  1  0  0  0  0
 11 14  1  0  0  0  0
 11 33  1  0  0  0  0
 12 13  1  0  0  0  0
 12 34  1  0  0  0  0
 13 15  1  0  0  0  0
 13 35  1  0  0  0  0
 13 36  1  0  0  0  0
 14 37  1  0  0  0  0
 14 38  1  0  0  0  0
 15 16  1  0  0  0  0
 15 39  1  0  0  0  0
 15 40  1  0  0  0  0
 16 41  1  0  0  0  0
 16 42  1  0  0  0  0
 18 19  1  0  0  0  0
 19 21  2  0  0  0  0
 19 22  1  0  0  0  0
 20 23  1  0  0  0  0
 20 24  2  0  0  0  0
 21 26  1  0  0  0  0
 21 46  1  0  0  0  0
 22 27  2  0  0  0  0
 22 47  1  0  0  0  0
 23 25  2  0  0  0  0
 23 48  1  0  0  0  0
 24 29  1  0  0  0  0
 24 49  1  0  0  0  0
 25 30  1  0  0  0  0
 25 31  1  0  0  0  0
 26 28  2  0  0  0  0
 26 50  1  0  0  0  0
 27 28  1  0  0  0  0
 27 51  1  0  0  0  0
 29 30  2  0  0  0  0
 29 52  1  0  0  0  0
 30 53  1  0  0  0  0
 32 54  1  0  0  0  0
 32 55  1  0  0  0  0
 32 56  1  0  0  0  0
M  END
> <PUBCHEM_COMPOUND_CID>
26742081

> <PUBCHEM_CONFORMER_RMSD>
1

> <PUBCHEM_CONFORMER_DIVERSEORDER>
1
114
206
60
163
246
194
27
211
158
34
192
113
80
85
66
77
97
183
209
227
252
201
226
172
191
182
40
3
21
140
214
177
55
242
235
104
216
136
30
5
248
193
91
225
165
132
247
212
119
187
95
178
84
218
222
198
62
180
243
241
221
147
130
14
232
115
223
156
164
237
86
213
17
220
26
200
150
250
92
118
28
236
143
149
43
120
82
90
151
168
224
205
93
102
111
139
199
154
161
78
52
251
51
244
38
81
141
145
152
196
204
89
65
71
233
166
44
137
195
48
41
239
98
47
245
20
87
56
160
42
75
121
131
179
109
135
217
185
155
24
171
33
125
103
127
79
63
153
133
138
202
238
240
69
64
122
58
230
2
88
167
39
61
18
229
76
16
10
231
72
94
105
124
100
83
134
208
197
23
29
117
203
108
74
54
159
190
210
70
96
46
170
219
128
45
186
35
9
173
176
126
129
57
13
162
112
169
99
144
249
146
106
110
31
37
4
184
107
59
53
36
189
101
157
68
67
73
142
234
25
188
6
49
228
19
175
174
181
50
15
123
12
22
11
8
32
116
215
7
207
148

> <PUBCHEM_MMFF94_PARTIAL_CHARGES>
41
1 -0.34
10 -0.55
11 0.3
12 0.28
14 0.3
16 0.3
17 0.69
18 0.54
19 0.09
2 -0.34
20 0.12
21 -0.15
22 -0.15
23 -0.15
24 -0.15
25 -0.14
26 -0.15
27 -0.15
28 0.08
29 -0.15
3 -0.34
30 -0.15
31 1.16
32 0.28
4 -0.68
43 0.37
44 0.4
45 0.37
46 0.15
47 0.15
48 0.15
49 0.15
5 -0.57
50 0.15
51 0.15
52 0.15
53 0.15
6 -0.57
7 -0.36
8 -0.66
9 -0.73

> <PUBCHEM_EFFECTIVE_ROTOR_COUNT>
9.4

> <PUBCHEM_PHARMACOPHORE_FEATURES>
10
1 10 donor
1 4 acceptor
1 4 donor
1 5 acceptor
1 6 acceptor
1 7 acceptor
1 9 donor
6 19 21 22 26 27 28 rings
6 20 23 24 25 29 30 rings
7 8 11 12 13 14 15 16 rings

> <PUBCHEM_HEAVY_ATOM_COUNT>
32

> <PUBCHEM_ATOM_DEF_STEREO_COUNT>
2

> <PUBCHEM_ATOM_UDEF_STEREO_COUNT>
0

> <PUBCHEM_BOND_DEF_STEREO_COUNT>
0

> <PUBCHEM_BOND_UDEF_STEREO_COUNT>
0

> <PUBCHEM_ISOTOPIC_ATOM_COUNT>
0

> <PUBCHEM_COMPONENT_COUNT>
1

> <PUBCHEM_CACTVS_TAUTO_COUNT>
4

> <PUBCHEM_CONFORMER_ID>
01980D4100000001

> <PUBCHEM_MMFF94_ENERGY>
88.5758

> <PUBCHEM_FEATURE_SELFOVERLAP>
50.749

> <PUBCHEM_SHAPE_FINGERPRINT>
1100329 8 18193275191519905320
11513181 2 18131348587967925262
12107698 1 18335699399537668371
12156800 1 15984002318770392240
12422481 6 18410561894839644952
12553582 1 17981048505320336581
12788726 201 17976251340225100907
13122387 1 17476635382630305444
13140716 1 18267023864458585969
13402501 40 18265903633966700269
140371 6 17981326681867405541
14114211 68 17970652850850260556
14117953 113 18055629521630541493
14955137 171 18340768122445686878
15001296 14 18409450254451474168
15264996 55 16604622524536288395
15297060 5 17557419886526049602
15968369 153 18272927211993633472
16112460 7 18268728138374767649
18336668 15 18115307744500661716
19591789 44 18123471854475878709
20721686 56 18408321098890797563
20764821 26 18262252018343091264
20905425 154 18411144636018183870
21421861 104 18268441130768496817
3298306 158 18337672035193284757
338550 245 18334576858664139508
3680242 22 18338804420231504769
392239 28 18336553698924440675
42626532 9 17763493641417865915
463206 1 18338238141937450664
5081480 168 17343259313474951134
57091435 65 18338509837146397584
5776283 40 17832723631241753100
59755656 215 18191024706662525227

> <PUBCHEM_SHAPE_MULTIPOLES>
598.3
10.63
5.54
1.31
4.02
2.77
0.12
-2.93
-1.42
-4.19
-1.02
-0.16
-0.62
-0.44

> <PUBCHEM_SHAPE_SELFOVERLAP>
1270.704

> <PUBCHEM_SHAPE_VOLUME>
332.2

> <PUBCHEM_COORDINATE_TYPE>
2
5
10

$$$$
