38027531
  -OEChem-12032416243D

 63 64  0     1  0  0  0  0  0999 V2000
   -5.1905   -1.1856   -2.1513 F   0  0  0  0  0  0  0  0  0  0  0  0
   -0.9482    3.1294    1.1395 O   0  0  0  0  0  0  0  0  0  0  0  0
    1.7084   -3.3315   -0.8530 O   0  0  0  0  0  0  0  0  0  0  0  0
    3.1562   -1.6672   -0.1218 N   0  0  0  0  0  0  0  0  0  0  0  0
   -1.2248    1.0841    2.2076 N   0  0  0  0  0  0  0  0  0  0  0  0
    2.2217   -3.1353    1.4014 N   0  0  0  0  0  0  0  0  0  0  0  0
    1.4639    0.5340   -1.2771 C   0  0  1  0  0  0  0  0  0  0  0  0
    3.0007    0.3948   -1.4150 C   0  0  1  0  0  0  0  0  0  0  0  0
    1.0894    1.9684   -0.8743 C   0  0  0  0  0  0  0  0  0  0  0  0
    1.7390    2.3879    0.4579 C   0  0  2  0  0  0  0  0  0  0  0  0
    0.7398    0.1531   -2.5721 C   0  0  0  0  0  0  0  0  0  0  0  0
    3.2120    2.0355    0.5017 C   0  0  0  0  0  0  0  0  0  0  0  0
    3.7607    1.1528   -0.3519 C   0  0  0  0  0  0  0  0  0  0  0  0
    3.4267   -1.0776   -1.3954 C   0  0  0  0  0  0  0  0  0  0  0  0
    0.9937    1.7802    1.6514 C   0  0  0  0  0  0  0  0  0  0  0  0
   -0.6912   -0.2825   -2.2734 C   0  0  0  0  0  0  0  0  0  0  0  0
    0.7563    1.3203   -3.5539 C   0  0  0  0  0  0  0  0  0  0  0  0
    4.0506    2.7559    1.5206 C   0  0  0  0  0  0  0  0  0  0  0  0
   -0.4838    2.1000    1.6216 C   0  0  0  0  0  0  0  0  0  0  0  0
    2.3059   -2.7653    0.0615 C   0  0  0  0  0  0  0  0  0  0  0  0
   -2.6647    1.1220    2.3205 C   0  0  0  0  0  0  0  0  0  0  0  0
   -3.3383    0.5064    1.1282 C   0  0  0  0  0  0  0  0  0  0  0  0
    1.4105   -4.2388    1.8588 C   0  0  0  0  0  0  0  0  0  0  0  0
   -3.6657    1.2976    0.0269 C   0  0  0  0  0  0  0  0  0  0  0  0
   -3.6367   -0.8561    1.1215 C   0  0  0  0  0  0  0  0  0  0  0  0
   -0.0474   -3.8448    1.9746 C   0  0  0  0  0  0  0  0  0  0  0  0
   -4.2915    0.7262   -1.0809 C   0  0  0  0  0  0  0  0  0  0  0  0
   -4.2627   -1.4276    0.0137 C   0  0  0  0  0  0  0  0  0  0  0  0
   -4.5901   -0.6364   -1.0875 C   0  0  0  0  0  0  0  0  0  0  0  0
    1.1175   -0.1355   -0.4801 H   0  0  0  0  0  0  0  0  0  0  0  0
    3.3218    0.8136   -2.3770 H   0  0  0  0  0  0  0  0  0  0  0  0
    0.0056    2.1035   -0.8599 H   0  0  0  0  0  0  0  0  0  0  0  0
    1.4705    2.6817   -1.6177 H   0  0  0  0  0  0  0  0  0  0  0  0
    1.6485    3.4818    0.5169 H   0  0  0  0  0  0  0  0  0  0  0  0
    1.2347   -0.6987   -3.0498 H   0  0  0  0  0  0  0  0  0  0  0  0
    4.8331    0.9737   -0.3053 H   0  0  0  0  0  0  0  0  0  0  0  0
    4.5087   -1.1599   -1.5551 H   0  0  0  0  0  0  0  0  0  0  0  0
    2.9493   -1.6525   -2.1934 H   0  0  0  0  0  0  0  0  0  0  0  0
    1.3830    2.1833    2.5943 H   0  0  0  0  0  0  0  0  0  0  0  0
    1.1471    0.6945    1.6838 H   0  0  0  0  0  0  0  0  0  0  0  0
   -1.2819    0.5255   -1.8339 H   0  0  0  0  0  0  0  0  0  0  0  0
   -0.7082   -1.1319   -1.5820 H   0  0  0  0  0  0  0  0  0  0  0  0
   -1.1965   -0.5965   -3.1932 H   0  0  0  0  0  0  0  0  0  0  0  0
    0.0824    2.1344   -3.2673 H   0  0  0  0  0  0  0  0  0  0  0  0
    0.4021    0.9719   -4.5321 H   0  0  0  0  0  0  0  0  0  0  0  0
    1.7606    1.7227   -3.7153 H   0  0  0  0  0  0  0  0  0  0  0  0
    3.9574    3.8391    1.3921 H   0  0  0  0  0  0  0  0  0  0  0  0
    5.1129    2.5042    1.4328 H   0  0  0  0  0  0  0  0  0  0  0  0
    3.7341    2.4964    2.5353 H   0  0  0  0  0  0  0  0  0  0  0  0
    3.6549   -1.3167    0.6904 H   0  0  0  0  0  0  0  0  0  0  0  0
   -0.7502    0.2634    2.5726 H   0  0  0  0  0  0  0  0  0  0  0  0
   -2.9931    2.1600    2.4503 H   0  0  0  0  0  0  0  0  0  0  0  0
   -2.9378    0.5853    3.2362 H   0  0  0  0  0  0  0  0  0  0  0  0
    2.7411   -2.5988    2.0893 H   0  0  0  0  0  0  0  0  0  0  0  0
    1.5205   -5.0733    1.1584 H   0  0  0  0  0  0  0  0  0  0  0  0
    1.7994   -4.5510    2.8329 H   0  0  0  0  0  0  0  0  0  0  0  0
   -3.4408    2.3605    0.0185 H   0  0  0  0  0  0  0  0  0  0  0  0
   -3.3839   -1.4836    1.9721 H   0  0  0  0  0  0  0  0  0  0  0  0
   -0.1721   -3.0040    2.6654 H   0  0  0  0  0  0  0  0  0  0  0  0
   -0.4570   -3.5402    1.0058 H   0  0  0  0  0  0  0  0  0  0  0  0
   -0.6417   -4.6850    2.3465 H   0  0  0  0  0  0  0  0  0  0  0  0
   -4.5459    1.3416   -1.9387 H   0  0  0  0  0  0  0  0  0  0  0  0
   -4.4941   -2.4886    0.0077 H   0  0  0  0  0  0  0  0  0  0  0  0
  1 29  1  0  0  0  0
  2 19  2  0  0  0  0
  3 20  2  0  0  0  0
  4 14  1  0  0  0  0
  4 20  1  0  0  0  0
  4 50  1  0  0  0  0
  5 19  1  0  0  0  0
  5 21  1  0  0  0  0
  5 51  1  0  0  0  0
  6 20  1  0  0  0  0
  6 23  1  0  0  0  0
  6 54  1  0  0  0  0
  7  8  1  0  0  0  0
  7  9  1  0  0  0  0
  7 11  1  0  0  0  0
  7 30  1  0  0  0  0
  8 13  1  0  0  0  0
  8 14  1  0  0  0  0
  8 31  1  0  0  0  0
  9 10  1  0  0  0  0
  9 32  1  0  0  0  0
  9 33  1  0  0  0  0
 10 12  1  0  0  0  0
 10 15  1  0  0  0  0
 10 34  1  0  0  0  0
 11 16  1  0  0  0  0
 11 17  1  0  0  0  0
 11 35  1  0  0  0  0
 12 13  2  0  0  0  0
 12 18  1  0  0  0  0
 13 36  1  0  0  0  0
 14 37  1  0  0  0  0
 14 38  1  0  0  0  0
 15 19  1  0  0  0  0
 15 39  1  0  0  0  0
 15 40  1  0  0  0  0
 16 41  1  0  0  0  0
 16 42  1  0  0  0  0
 16 43  1  0  0  0  0
 17 44  1  0  0  0  0
 17 45  1  0  0  0  0
 17 46  1  0  0  0  0
 18 47  1  0  0  0  0
 18 48  1  0  0  0  0
 18 49  1  0  0  0  0
 21 22  1  0  0  0  0
 21 52  1  0  0  0  0
 21 53  1  0  0  0  0
 22 24  2  0  0  0  0
 22 25  1  0  0  0  0
 23 26  1  0  0  0  0
 23 55  1  0  0  0  0
 23 56  1  0  0  0  0
 24 27  1  0  0  0  0
 24 57  1  0  0  0  0
 25 28  2  0  0  0  0
 25 58  1  0  0  0  0
 26 59  1  0  0  0  0
 26 60  1  0  0  0  0
 26 61  1  0  0  0  0
 27 29  2  0  0  0  0
 27 62  1  0  0  0  0
 28 29  1  0  0  0  0
 28 63  1  0  0  0  0
M  END
> <PUBCHEM_COMPOUND_CID>
38027531

> <PUBCHEM_CONFORMER_RMSD>
1

> <PUBCHEM_CONFORMER_DIVERSEORDER>
1
40
187
201
206
110
198
192
202
129
59
81
128
211
53
207
57
33
97
147
131
115
169
83
179
49
132
167
8
82
146
95
44
20
174
24
116
195
122
155
123
85
37
111
127
25
136
160
190
28
17
200
74
135
163
171
178
194
56
68
140
5
13
84
125
158
159
165
88
67
101
27
144
210
54
86
188
156
161
196
35
103
203
205
148
186
60
43
31
51
92
98
112
100
39
173
175
189
102
41
197
166
117
80
184
172
93
36
183
77
141
26
164
213
170
212
180
32
76
143
21
66
52
50
149
157
10
216
139
168
185
58
215
23
121
2
72
64
71
145
34
209
45
126
63
191
137
70
124
62
109
16
133
176
153
78
96
9
119
48
89
106
120
11
99
152
208
4
61
7
214
15
73
181
46
12
104
108
69
75
6
30
118
134
79
105
130
177
107
87
22
193
138
3
113
29
142
47
182
91
19
204
114
150
199
42
90
65
94
154
18
151
162
14
38
55

> <PUBCHEM_MMFF94_PARTIAL_CHARGES>
31
1 -0.19
10 0.14
12 -0.28
13 -0.29
14 0.3
15 0.06
18 0.14
19 0.57
2 -0.57
20 0.69
21 0.44
22 -0.14
23 0.3
24 -0.15
25 -0.15
27 -0.15
28 -0.15
29 0.19
3 -0.57
36 0.15
4 -0.73
5 -0.73
50 0.37
51 0.37
54 0.37
57 0.15
58 0.15
6 -0.73
62 0.15
63 0.15
8 0.14

> <PUBCHEM_EFFECTIVE_ROTOR_COUNT>
11.8

> <PUBCHEM_PHARMACOPHORE_FEATURES>
8
1 2 acceptor
1 3 acceptor
1 4 donor
1 5 donor
1 6 donor
3 11 16 17 hydrophobe
6 22 24 25 27 28 29 rings
6 7 8 9 10 12 13 rings

> <PUBCHEM_HEAVY_ATOM_COUNT>
29

> <PUBCHEM_ATOM_DEF_STEREO_COUNT>
3

> <PUBCHEM_ATOM_UDEF_STEREO_COUNT>
0

> <PUBCHEM_BOND_DEF_STEREO_COUNT>
0

> <PUBCHEM_BOND_UDEF_STEREO_COUNT>
0

> <PUBCHEM_ISOTOPIC_ATOM_COUNT>
0

> <PUBCHEM_COMPONENT_COUNT>
1

> <PUBCHEM_CACTVS_TAUTO_COUNT>
6

> <PUBCHEM_CONFORMER_ID>
0244410B00000001

> <PUBCHEM_MMFF94_ENERGY>
46.7804

> <PUBCHEM_FEATURE_SELFOVERLAP>
40.643

> <PUBCHEM_SHAPE_FINGERPRINT>
11370993 70 18189333635665833491
12156800 1 15798162755895553442
13583140 156 18413385436732269757
14114207 22 16953058069090453554
14251757 17 15431746189829468947
19026451 147 18270667706492505683
19315092 285 18266713879990586007
20764821 26 17834139780310456003
20775530 9 17610903379007205378
25222932 49 17914892274147277647
35225 105 17618798293242877295
46194498 28 16445636802566471925
463206 1 18339375079809530371
513532 50 17241866754083025407

> <PUBCHEM_SHAPE_MULTIPOLES>
562.85
8.4
4.52
3.01
8.34
5.76
-1.32
-0.59
-1.4
-3.73
3.23
0.34
-0.62
-0.15

> <PUBCHEM_SHAPE_SELFOVERLAP>
1149.575

> <PUBCHEM_SHAPE_VOLUME>
326.7

> <PUBCHEM_COORDINATE_TYPE>
2
5
10

$$$$
