75537073
  -OEChem-12032416333D

 45 48  0     1  0  0  0  0  0999 V2000
    2.5519    2.7721   -0.1216 O   0  0  0  0  0  0  0  0  0  0  0  0
    0.4047    1.8266   -0.2408 N   0  0  0  0  0  0  0  0  0  0  0  0
   -2.1530    1.0078    0.5952 N   0  0  2  0  0  0  0  0  0  0  0  0
    2.1146    0.7035   -1.1674 N   0  0  0  0  0  0  0  0  0  0  0  0
    4.1709   -1.8799   -0.7825 N   0  0  0  0  0  0  0  0  0  0  0  0
   -5.0935   -2.4444   -0.1772 N   0  0  0  0  0  0  0  0  0  0  0  0
   -0.2161    0.6909   -0.8900 C   0  0  2  0  0  0  0  0  0  0  0  0
   -1.2044    0.0115    0.0574 C   0  0  0  0  0  0  0  0  0  0  0  0
    0.9679   -0.1766   -1.3127 C   0  0  0  0  0  0  0  0  0  0  0  0
   -0.4272    2.7908    0.4488 C   0  0  0  0  0  0  0  0  0  0  0  0
   -1.4398    2.0660    1.3389 C   0  0  0  0  0  0  0  0  0  0  0  0
    1.7861    1.8830   -0.4693 C   0  0  0  0  0  0  0  0  0  0  0  0
   -3.1407    0.3576    1.4559 C   0  0  0  0  0  0  0  0  0  0  0  0
    3.4441    0.3033   -1.5723 C   0  0  0  0  0  0  0  0  0  0  0  0
   -4.1954   -0.3601    0.6562 C   0  0  0  0  0  0  0  0  0  0  0  0
    4.1135   -0.5529   -0.5303 C   0  0  0  0  0  0  0  0  0  0  0  0
   -5.2161    0.3410    0.0240 C   0  0  0  0  0  0  0  0  0  0  0  0
   -4.1789   -1.7395    0.5260 C   0  0  0  0  0  0  0  0  0  0  0  0
    4.6274    0.0428    0.6102 C   0  0  0  0  0  0  0  0  0  0  0  0
   -6.1757   -0.3488   -0.7086 C   0  0  0  0  0  0  0  0  0  0  0  0
    5.2394   -0.7760    1.5527 C   0  0  0  0  0  0  0  0  0  0  0  0
    4.7732   -2.6439    0.1563 C   0  0  0  0  0  0  0  0  0  0  0  0
   -6.0706   -1.7286   -0.7778 C   0  0  0  0  0  0  0  0  0  0  0  0
    5.3179   -2.1460    1.3289 C   0  0  0  0  0  0  0  0  0  0  0  0
   -0.7369    1.0742   -1.7774 H   0  0  0  0  0  0  0  0  0  0  0  0
   -1.7244   -0.7682   -0.5095 H   0  0  0  0  0  0  0  0  0  0  0  0
   -0.6666   -0.4805    0.8793 H   0  0  0  0  0  0  0  0  0  0  0  0
    1.1105   -1.0435   -0.6594 H   0  0  0  0  0  0  0  0  0  0  0  0
    0.8806   -0.5113   -2.3507 H   0  0  0  0  0  0  0  0  0  0  0  0
   -0.9415    3.3830   -0.3168 H   0  0  0  0  0  0  0  0  0  0  0  0
    0.2034    3.4672    1.0343 H   0  0  0  0  0  0  0  0  0  0  0  0
   -2.1518    2.8079    1.7199 H   0  0  0  0  0  0  0  0  0  0  0  0
   -0.9200    1.6328    2.2040 H   0  0  0  0  0  0  0  0  0  0  0  0
   -3.6687    1.1060    2.0636 H   0  0  0  0  0  0  0  0  0  0  0  0
   -2.6683   -0.3204    2.1798 H   0  0  0  0  0  0  0  0  0  0  0  0
    4.0484    1.2025   -1.7404 H   0  0  0  0  0  0  0  0  0  0  0  0
    3.3722   -0.2278   -2.5279 H   0  0  0  0  0  0  0  0  0  0  0  0
   -5.2735    1.4237    0.0951 H   0  0  0  0  0  0  0  0  0  0  0  0
   -3.4081   -2.3428    0.9956 H   0  0  0  0  0  0  0  0  0  0  0  0
    4.5693    1.1125    0.7764 H   0  0  0  0  0  0  0  0  0  0  0  0
   -6.9803    0.1769   -1.2098 H   0  0  0  0  0  0  0  0  0  0  0  0
    5.6559   -0.3471    2.4592 H   0  0  0  0  0  0  0  0  0  0  0  0
    4.8084   -3.7054   -0.0656 H   0  0  0  0  0  0  0  0  0  0  0  0
   -6.7939   -2.3132   -1.3368 H   0  0  0  0  0  0  0  0  0  0  0  0
    5.7908   -2.8033    2.0495 H   0  0  0  0  0  0  0  0  0  0  0  0
  1 12  2  0  0  0  0
  2  7  1  0  0  0  0
  2 10  1  0  0  0  0
  2 12  1  0  0  0  0
  3  8  1  0  0  0  0
  3 11  1  0  0  0  0
  3 13  1  0  0  0  0
  4  9  1  0  0  0  0
  4 12  1  0  0  0  0
  4 14  1  0  0  0  0
  5 16  1  0  0  0  0
  5 22  2  0  0  0  0
  6 18  1  0  0  0  0
  6 23  2  0  0  0  0
  7  8  1  0  0  0  0
  7  9  1  0  0  0  0
  7 25  1  0  0  0  0
  8 26  1  0  0  0  0
  8 27  1  0  0  0  0
  9 28  1  0  0  0  0
  9 29  1  0  0  0  0
 10 11  1  0  0  0  0
 10 30  1  0  0  0  0
 10 31  1  0  0  0  0
 11 32  1  0  0  0  0
 11 33  1  0  0  0  0
 13 15  1  0  0  0  0
 13 34  1  0  0  0  0
 13 35  1  0  0  0  0
 14 16  1  0  0  0  0
 14 36  1  0  0  0  0
 14 37  1  0  0  0  0
 15 17  1  0  0  0  0
 15 18  2  0  0  0  0
 16 19  2  0  0  0  0
 17 20  2  0  0  0  0
 17 38  1  0  0  0  0
 18 39  1  0  0  0  0
 19 21  1  0  0  0  0
 19 40  1  0  0  0  0
 20 23  1  0  0  0  0
 20 41  1  0  0  0  0
 21 24  2  0  0  0  0
 21 42  1  0  0  0  0
 22 24  1  0  0  0  0
 22 43  1  0  0  0  0
 23 44  1  0  0  0  0
 24 45  1  0  0  0  0
M  END
> <PUBCHEM_COMPOUND_CID>
75537073

> <PUBCHEM_CONFORMER_RMSD>
0.8

> <PUBCHEM_CONFORMER_DIVERSEORDER>
1
58
105
13
93
174
156
155
165
113
116
196
66
184
129
90
160
163
73
75
43
153
37
87
170
104
80
96
143
148
203
178
137
52
157
40
191
11
142
198
167
131
130
27
111
159
42
201
169
141
77
172
39
31
200
83
79
132
51
183
205
88
190
124
101
138
23
188
35
168
68
17
202
98
181
194
70
173
102
41
9
65
182
140
204
122
8
71
72
125
151
164
5
21
123
50
53
92
81
135
103
118
133
85
63
147
89
161
144
152
7
55
86
136
162
145
57
207
171
6
46
38
19
54
94
117
34
189
108
166
3
154
180
199
33
64
18
158
95
56
76
60
29
197
150
30
176
78
120
179
48
25
175
20
14
186
74
44
146
15
69
4
36
115
128
121
114
187
62
47
206
22
59
67
127
106
32
28
139
84
109
26
185
126
195
107
91
134
177
119
24
61
10
16
112
100
192
193
82
110
45
12
97
99
49
2
149

> <PUBCHEM_MMFF94_PARTIAL_CHARGES>
32
1 -0.57
10 0.3
11 0.27
12 0.69
13 0.41
14 0.44
15 -0.14
16 0.17
17 -0.15
18 0.16
19 -0.15
2 -0.66
20 -0.15
21 -0.15
22 0.16
23 0.16
24 -0.15
3 -0.81
38 0.15
39 0.15
4 -0.66
40 0.15
41 0.15
42 0.15
43 0.15
44 0.15
45 0.15
5 -0.62
6 -0.62
7 0.3
8 0.27
9 0.3

> <PUBCHEM_EFFECTIVE_ROTOR_COUNT>
5.2

> <PUBCHEM_PHARMACOPHORE_FEATURES>
8
1 1 acceptor
1 3 cation
1 5 acceptor
1 6 acceptor
5 2 4 7 9 12 rings
6 2 3 7 8 10 11 rings
6 5 16 19 21 22 24 rings
6 6 15 17 18 20 23 rings

> <PUBCHEM_HEAVY_ATOM_COUNT>
24

> <PUBCHEM_ATOM_DEF_STEREO_COUNT>
1

> <PUBCHEM_ATOM_UDEF_STEREO_COUNT>
0

> <PUBCHEM_BOND_DEF_STEREO_COUNT>
0

> <PUBCHEM_BOND_UDEF_STEREO_COUNT>
0

> <PUBCHEM_ISOTOPIC_ATOM_COUNT>
0

> <PUBCHEM_COMPONENT_COUNT>
1

> <PUBCHEM_CACTVS_TAUTO_COUNT>
1

> <PUBCHEM_CONFORMER_ID>
04809AB100000001

> <PUBCHEM_MMFF94_ENERGY>
59.3596

> <PUBCHEM_FEATURE_SELFOVERLAP>
40.693

> <PUBCHEM_SHAPE_FINGERPRINT>
10447042 23 18334859428725330124
11796584 16 17313386755074186283
12422481 6 17346883316832448733
12596602 18 17775003458207152834
12839892 36 17917715673424519967
12892183 10 17774718637661596328
12895836 83 8646472034394284330
13083527 12 18343023293755919420
13533116 47 18408604773154280488
13782708 43 17895202168562158259
13885169 86 10663521738593196738
13911852 28 18263360292200568354
13914758 101 18334853884524021989
14251740 57 18130232554118016582
14251751 18 18335133198398927135
1454969 45 18335990839734765436
14848178 5 18408041805583302450
14950920 106 14907634319684753207
15163728 17 10519691324666744728
15183329 4 15719108037588763511
15188451 53 18337945702035528426
15210252 30 9583226241825134262
15342168 16 10015584986715735969
15475509 8 15430313582155230215
17349148 13 18272664462594317965
17857418 61 18408324388814413207
17959699 21 8574706906133129048
18222031 100 18342468023409342708
19377110 9 13901899042741942845
19438510 23 11887082442328225118
1979834 28 17632304457902951110
20028762 73 18342738498928245054
20567600 234 16200142239941616083
20567600 70 18340205301140525538
21458453 9 15553299588118781763
21728266 224 18412546479274029465
22061861 79 16732985331812192375
22079108 93 14405178465236345644
23559900 14 18262805193093858305
23572383 38 18342459218732206247
3004659 81 18335710463293697694
312425 54 17559967514786185035
339767 52 18341890792726935871
3459 110 14907599255845827639
3472631 163 9222933886214708226
376196 1 14204810235597263004
38570 142 11023824011603459472
3886686 26 17263851282663929170
392239 28 15626216931687986891
439807 62 18263084487198204571
463206 1 18259990391919078467
5085150 59 17989203716925020895
5104073 3 18059024985699841681
5924683 9 18341052895888494913
59682541 52 15719381820231893003
6438161 24 18342449388221764199
76465 3 18409169900250029717
7808743 9 8934991556160243417
8988823 20 18409164446100584260
960060 61 16950573185564822126

> <PUBCHEM_SHAPE_MULTIPOLES>
463.13
15.18
2.89
1.39
7.23
0.32
-0.09
-12.7
-1.2
-1.04
-0.37
-0.86
-0.01
-1.53

> <PUBCHEM_SHAPE_SELFOVERLAP>
995.518

> <PUBCHEM_SHAPE_VOLUME>
254.3

> <PUBCHEM_COORDINATE_TYPE>
2
5
10

$$$$
