45783718
  -OEChem-12032416273D

 47 50  0     1  0  0  0  0  0999 V2000
    1.9003    2.8182   -0.1272 O   0  0  0  0  0  0  0  0  0  0  0  0
   -4.0409   -0.7358    0.2189 O   0  0  0  0  0  0  0  0  0  0  0  0
   -5.7908   -2.4071   -1.1878 O   0  0  0  0  0  0  0  0  0  0  0  0
    3.2989   -0.5073   -0.8983 N   0  0  0  0  0  0  0  0  0  0  0  0
    0.7069    0.9471   -0.4290 N   0  0  0  0  0  0  0  0  0  0  0  0
    3.6136   -0.4035    1.3995 N   0  0  0  0  0  0  0  0  0  0  0  0
    3.8460   -2.4794    0.1979 N   0  0  0  0  0  0  0  0  0  0  0  0
    0.5983    3.1143    0.2958 N   0  0  0  0  0  0  0  0  0  0  0  0
   -4.1545    1.4613    0.9563 N   0  0  0  0  0  0  0  0  0  0  0  0
    3.1880    0.9524   -1.0511 C   0  0  1  0  0  0  0  0  0  0  0  0
    3.3510    1.1658   -2.5665 C   0  0  0  0  0  0  0  0  0  0  0  0
    2.8031   -0.1136   -3.1780 C   0  0  0  0  0  0  0  0  0  0  0  0
    3.2444   -1.1915   -2.1927 C   0  0  0  0  0  0  0  0  0  0  0  0
    1.8771    1.5234   -0.5383 C   0  0  0  0  0  0  0  0  0  0  0  0
    3.5992   -1.1583    0.2844 C   0  0  0  0  0  0  0  0  0  0  0  0
   -0.0454    1.9619    0.0870 C   0  0  0  0  0  0  0  0  0  0  0  0
   -1.4389    1.7920    0.3818 C   0  0  0  0  0  0  0  0  0  0  0  0
    4.1352   -3.0825    1.3696 C   0  0  0  0  0  0  0  0  0  0  0  0
    3.9101   -1.0702    2.5344 C   0  0  0  0  0  0  0  0  0  0  0  0
    4.1821   -2.4224    2.5805 C   0  0  0  0  0  0  0  0  0  0  0  0
   -2.0592    0.5705    0.1432 C   0  0  0  0  0  0  0  0  0  0  0  0
   -2.1747    2.8483    0.9071 C   0  0  0  0  0  0  0  0  0  0  0  0
   -3.4068    0.4577    0.4448 C   0  0  0  0  0  0  0  0  0  0  0  0
   -3.5172    2.6336    1.1747 C   0  0  0  0  0  0  0  0  0  0  0  0
   -5.4242   -0.7975    0.5459 C   0  0  0  0  0  0  0  0  0  0  0  0
   -5.9518   -2.1783    0.2068 C   0  0  0  0  0  0  0  0  0  0  0  0
   -6.2497   -3.6992   -1.5597 C   0  0  0  0  0  0  0  0  0  0  0  0
    4.0151    1.4567   -0.5348 H   0  0  0  0  0  0  0  0  0  0  0  0
    2.8456    2.0601   -2.9444 H   0  0  0  0  0  0  0  0  0  0  0  0
    4.4175    1.2505   -2.8112 H   0  0  0  0  0  0  0  0  0  0  0  0
    3.1746   -0.2950   -4.1904 H   0  0  0  0  0  0  0  0  0  0  0  0
    1.7081   -0.0694   -3.2198 H   0  0  0  0  0  0  0  0  0  0  0  0
    4.2399   -1.5649   -2.4599 H   0  0  0  0  0  0  0  0  0  0  0  0
    2.5372   -2.0277   -2.1880 H   0  0  0  0  0  0  0  0  0  0  0  0
    4.3348   -4.1468    1.3062 H   0  0  0  0  0  0  0  0  0  0  0  0
    3.9231   -0.4673    3.4361 H   0  0  0  0  0  0  0  0  0  0  0  0
    4.4168   -2.9315    3.5055 H   0  0  0  0  0  0  0  0  0  0  0  0
   -1.5249   -0.2815   -0.2657 H   0  0  0  0  0  0  0  0  0  0  0  0
   -1.7452    3.8230    1.1139 H   0  0  0  0  0  0  0  0  0  0  0  0
   -4.1357    3.4250    1.5852 H   0  0  0  0  0  0  0  0  0  0  0  0
   -5.9712   -0.0519   -0.0445 H   0  0  0  0  0  0  0  0  0  0  0  0
   -5.5702   -0.6074    1.6157 H   0  0  0  0  0  0  0  0  0  0  0  0
   -5.3845   -2.9369    0.7587 H   0  0  0  0  0  0  0  0  0  0  0  0
   -7.0115   -2.2506    0.4753 H   0  0  0  0  0  0  0  0  0  0  0  0
   -5.6745   -4.4742   -1.0438 H   0  0  0  0  0  0  0  0  0  0  0  0
   -7.3151   -3.8076   -1.3349 H   0  0  0  0  0  0  0  0  0  0  0  0
   -6.1067   -3.8184   -2.6370 H   0  0  0  0  0  0  0  0  0  0  0  0
  1  8  1  0  0  0  0
  1 14  1  0  0  0  0
  2 23  1  0  0  0  0
  2 25  1  0  0  0  0
  3 26  1  0  0  0  0
  3 27  1  0  0  0  0
  4 10  1  0  0  0  0
  4 13  1  0  0  0  0
  4 15  1  0  0  0  0
  5 14  2  0  0  0  0
  5 16  1  0  0  0  0
  6 15  2  0  0  0  0
  6 19  1  0  0  0  0
  7 15  1  0  0  0  0
  7 18  2  0  0  0  0
  8 16  2  0  0  0  0
  9 23  2  0  0  0  0
  9 24  1  0  0  0  0
 10 11  1  0  0  0  0
 10 14  1  0  0  0  0
 10 28  1  0  0  0  0
 11 12  1  0  0  0  0
 11 29  1  0  0  0  0
 11 30  1  0  0  0  0
 12 13  1  0  0  0  0
 12 31  1  0  0  0  0
 12 32  1  0  0  0  0
 13 33  1  0  0  0  0
 13 34  1  0  0  0  0
 16 17  1  0  0  0  0
 17 21  2  0  0  0  0
 17 22  1  0  0  0  0
 18 20  1  0  0  0  0
 18 35  1  0  0  0  0
 19 20  2  0  0  0  0
 19 36  1  0  0  0  0
 20 37  1  0  0  0  0
 21 23  1  0  0  0  0
 21 38  1  0  0  0  0
 22 24  2  0  0  0  0
 22 39  1  0  0  0  0
 24 40  1  0  0  0  0
 25 26  1  0  0  0  0
 25 41  1  0  0  0  0
 25 42  1  0  0  0  0
 26 43  1  0  0  0  0
 26 44  1  0  0  0  0
 27 45  1  0  0  0  0
 27 46  1  0  0  0  0
 27 47  1  0  0  0  0
M  END
> <PUBCHEM_COMPOUND_CID>
45783718

> <PUBCHEM_CONFORMER_RMSD>
1

> <PUBCHEM_CONFORMER_DIVERSEORDER>
1
40
35
23
51
41
24
52
30
22
29
32
18
36
47
13
43
39
27
42
11
16
14
25
17
10
19
49
31
7
21
28
48
3
20
12
9
50
26
4
53
33
46
6
8
38
2
44
34
37
45
15
5

> <PUBCHEM_MMFF94_PARTIAL_CHARGES>
31
1 -0.02
10 0.55
13 0.37
14 0.3
15 0.72
16 0.46
17 0.05
18 0.16
19 0.16
2 -0.36
20 -0.15
21 -0.15
22 -0.15
23 0.39
24 0.16
25 0.28
26 0.28
27 0.28
3 -0.56
35 0.15
36 0.15
37 0.15
38 0.15
39 0.15
4 -0.84
40 0.15
5 -0.57
6 -0.62
7 -0.62
8 -0.41
9 -0.62

> <PUBCHEM_EFFECTIVE_ROTOR_COUNT>
8

> <PUBCHEM_PHARMACOPHORE_FEATURES>
8
1 3 acceptor
1 7 acceptor
3 5 8 16 cation
4 4 6 7 15 cation
5 1 5 8 14 16 rings
5 4 10 11 12 13 rings
6 6 7 15 18 19 20 rings
6 9 17 21 22 23 24 rings

> <PUBCHEM_HEAVY_ATOM_COUNT>
27

> <PUBCHEM_ATOM_DEF_STEREO_COUNT>
1

> <PUBCHEM_ATOM_UDEF_STEREO_COUNT>
0

> <PUBCHEM_BOND_DEF_STEREO_COUNT>
0

> <PUBCHEM_BOND_UDEF_STEREO_COUNT>
0

> <PUBCHEM_ISOTOPIC_ATOM_COUNT>
0

> <PUBCHEM_COMPONENT_COUNT>
1

> <PUBCHEM_CACTVS_TAUTO_COUNT>
1

> <PUBCHEM_CONFORMER_ID>
02BA9AA600000001

> <PUBCHEM_MMFF94_ENERGY>
70.9949

> <PUBCHEM_FEATURE_SELFOVERLAP>
40.598

> <PUBCHEM_SHAPE_FINGERPRINT>
10042902 136 18046349630950640202
10622 236 18334571326741201827
10928967 22 18337410256994648691
11069576 57 18040437676923441766
11135609 149 16443619104509267334
11578080 2 17388251248734870348
11720765 8 12180113234806738010
11796584 16 18271818865091245573
12342043 65 16486155923569128589
12549972 3 16268559123726882976
12977781 61 17901062487390262917
14347332 77 18409163329888790873
14480069 147 17531832198169554435
14508693 111 18409729590291969706
14537116 161 13840250487009740991
14848178 5 18262787489327997307
15003188 105 18338236093026677110
15250474 111 18409174285780715715
15342816 4 18337122197759454036
17134984 74 18044937028886146319
1813 80 17098349588721422306
20626108 58 18409730621358219080
20691028 202 8069213037330331183
20775530 9 16663735706178369314
20843269 155 18413100680537798611
21033648 29 16414632627531456329
21585483 132 17340953866307206911
21599406 157 16660927815743513755
21703447 108 18198338649141592929
23559900 14 17701835284368950852
25222932 49 18340203089680572788
312425 83 16081370782386360103
4017518 198 16532559428919293198
4409770 3 16743171371621453212
46194498 28 13625542245329346326
5104073 3 18130796650785560297
5223283 242 15575263291077552335
56633871 153 17903074426212406555
59025328 239 17240479170271583492
6058803 2 18337127695434202297
6823239 73 17845952727418201100

> <PUBCHEM_SHAPE_MULTIPOLES>
508.15
13.81
4.25
2.5
18.94
1.13
-1.03
15.01
-0.17
3.08
0.67
-4.01
1.21
-5.42

> <PUBCHEM_SHAPE_SELFOVERLAP>
1093.399

> <PUBCHEM_SHAPE_VOLUME>
279.6

> <PUBCHEM_COORDINATE_TYPE>
2
5
10

$$$$
