38028493
  -OEChem-12032416343D

 57 58  0     1  0  0  0  0  0999 V2000
   -1.3229    2.9323   -0.1609 O   0  0  0  0  0  0  0  0  0  0  0  0
    1.7686   -3.5481    0.9586 O   0  0  0  0  0  0  0  0  0  0  0  0
    3.0782   -1.6211    0.9977 N   0  0  0  0  0  0  0  0  0  0  0  0
   -1.6152    1.4999    1.6456 N   0  0  0  0  0  0  0  0  0  0  0  0
   -3.7150   -2.0007    0.2799 N   0  0  0  0  0  0  0  0  0  0  0  0
    1.4143   -0.2363   -1.0897 C   0  0  1  0  0  0  0  0  0  0  0  0
    2.9616   -0.3004   -1.0495 C   0  0  1  0  0  0  0  0  0  0  0  0
    0.9440    1.2022   -1.3539 C   0  0  0  0  0  0  0  0  0  0  0  0
    1.4455    2.1857   -0.2797 C   0  0  2  0  0  0  0  0  0  0  0  0
    0.8335   -1.1751   -2.1517 C   0  0  0  0  0  0  0  0  0  0  0  0
    2.9210    1.9986    0.0101 C   0  0  0  0  0  0  0  0  0  0  0  0
    3.5846    0.8868   -0.3533 C   0  0  0  0  0  0  0  0  0  0  0  0
    3.4444   -1.5941   -0.3837 C   0  0  0  0  0  0  0  0  0  0  0  0
    0.6155    2.0722    1.0038 C   0  0  0  0  0  0  0  0  0  0  0  0
    0.8953   -0.5231   -3.5293 C   0  0  0  0  0  0  0  0  0  0  0  0
   -0.6002   -1.5570   -1.7977 C   0  0  0  0  0  0  0  0  0  0  0  0
    3.6279    3.1395    0.6876 C   0  0  0  0  0  0  0  0  0  0  0  0
   -0.8644    2.2351    0.7401 C   0  0  0  0  0  0  0  0  0  0  0  0
    2.2650   -2.6010    1.5628 C   0  0  0  0  0  0  0  0  0  0  0  0
   -3.0597    1.4694    1.6320 C   0  0  0  0  0  0  0  0  0  0  0  0
    2.0581   -2.4055    3.0409 C   0  0  0  0  0  0  0  0  0  0  0  0
   -3.5903    0.3644    0.7651 C   0  0  0  0  0  0  0  0  0  0  0  0
   -4.4143    0.6382   -0.3210 C   0  0  0  0  0  0  0  0  0  0  0  0
   -3.2730   -0.9599    1.0208 C   0  0  0  0  0  0  0  0  0  0  0  0
   -4.8890   -0.4060   -1.1069 C   0  0  0  0  0  0  0  0  0  0  0  0
   -4.5136   -1.6959   -0.7676 C   0  0  0  0  0  0  0  0  0  0  0  0
    1.0212   -0.5393   -0.1115 H   0  0  0  0  0  0  0  0  0  0  0  0
    3.3556   -0.2951   -2.0736 H   0  0  0  0  0  0  0  0  0  0  0  0
   -0.1409    1.2465   -1.4729 H   0  0  0  0  0  0  0  0  0  0  0  0
    1.3644    1.5698   -2.2998 H   0  0  0  0  0  0  0  0  0  0  0  0
    1.3046    3.1948   -0.6922 H   0  0  0  0  0  0  0  0  0  0  0  0
    1.4066   -2.1071   -2.1921 H   0  0  0  0  0  0  0  0  0  0  0  0
    4.6542    0.8269   -0.1615 H   0  0  0  0  0  0  0  0  0  0  0  0
    4.5391   -1.6516   -0.4191 H   0  0  0  0  0  0  0  0  0  0  0  0
    3.0685   -2.4838   -0.8961 H   0  0  0  0  0  0  0  0  0  0  0  0
    0.8960    2.8590    1.7146 H   0  0  0  0  0  0  0  0  0  0  0  0
    0.8099    1.1133    1.4999 H   0  0  0  0  0  0  0  0  0  0  0  0
    0.1637    0.2813   -3.6587 H   0  0  0  0  0  0  0  0  0  0  0  0
    0.6512   -1.2724   -4.2927 H   0  0  0  0  0  0  0  0  0  0  0  0
    1.8929   -0.1470   -3.7747 H   0  0  0  0  0  0  0  0  0  0  0  0
   -1.2664   -0.6894   -1.7685 H   0  0  0  0  0  0  0  0  0  0  0  0
   -0.6430   -2.0517   -0.8214 H   0  0  0  0  0  0  0  0  0  0  0  0
   -1.0043   -2.2565   -2.5379 H   0  0  0  0  0  0  0  0  0  0  0  0
    3.5027    4.0609    0.1098 H   0  0  0  0  0  0  0  0  0  0  0  0
    4.7032    2.9573    0.7876 H   0  0  0  0  0  0  0  0  0  0  0  0
    3.2270    3.3007    1.6927 H   0  0  0  0  0  0  0  0  0  0  0  0
    3.4840   -0.9208    1.6119 H   0  0  0  0  0  0  0  0  0  0  0  0
   -1.1436    0.9486    2.3566 H   0  0  0  0  0  0  0  0  0  0  0  0
   -3.4305    2.4446    1.2968 H   0  0  0  0  0  0  0  0  0  0  0  0
   -3.4004    1.3230    2.6630 H   0  0  0  0  0  0  0  0  0  0  0  0
    1.8457   -1.3550    3.2598 H   0  0  0  0  0  0  0  0  0  0  0  0
    1.2108   -3.0097    3.3766 H   0  0  0  0  0  0  0  0  0  0  0  0
    2.9590   -2.7147    3.5774 H   0  0  0  0  0  0  0  0  0  0  0  0
   -4.6924    1.6593   -0.5665 H   0  0  0  0  0  0  0  0  0  0  0  0
   -2.6363   -1.2386    1.8548 H   0  0  0  0  0  0  0  0  0  0  0  0
   -5.5318   -0.2162   -1.9588 H   0  0  0  0  0  0  0  0  0  0  0  0
   -4.8563   -2.5453   -1.3493 H   0  0  0  0  0  0  0  0  0  0  0  0
  1 18  2  0  0  0  0
  2 19  2  0  0  0  0
  3 13  1  0  0  0  0
  3 19  1  0  0  0  0
  3 47  1  0  0  0  0
  4 18  1  0  0  0  0
  4 20  1  0  0  0  0
  4 48  1  0  0  0  0
  5 24  1  0  0  0  0
  5 26  2  0  0  0  0
  6  7  1  0  0  0  0
  6  8  1  0  0  0  0
  6 10  1  0  0  0  0
  6 27  1  0  0  0  0
  7 12  1  0  0  0  0
  7 13  1  0  0  0  0
  7 28  1  0  0  0  0
  8  9  1  0  0  0  0
  8 29  1  0  0  0  0
  8 30  1  0  0  0  0
  9 11  1  0  0  0  0
  9 14  1  0  0  0  0
  9 31  1  0  0  0  0
 10 15  1  0  0  0  0
 10 16  1  0  0  0  0
 10 32  1  0  0  0  0
 11 12  2  0  0  0  0
 11 17  1  0  0  0  0
 12 33  1  0  0  0  0
 13 34  1  0  0  0  0
 13 35  1  0  0  0  0
 14 18  1  0  0  0  0
 14 36  1  0  0  0  0
 14 37  1  0  0  0  0
 15 38  1  0  0  0  0
 15 39  1  0  0  0  0
 15 40  1  0  0  0  0
 16 41  1  0  0  0  0
 16 42  1  0  0  0  0
 16 43  1  0  0  0  0
 17 44  1  0  0  0  0
 17 45  1  0  0  0  0
 17 46  1  0  0  0  0
 19 21  1  0  0  0  0
 20 22  1  0  0  0  0
 20 49  1  0  0  0  0
 20 50  1  0  0  0  0
 21 51  1  0  0  0  0
 21 52  1  0  0  0  0
 21 53  1  0  0  0  0
 22 23  1  0  0  0  0
 22 24  2  0  0  0  0
 23 25  2  0  0  0  0
 23 54  1  0  0  0  0
 24 55  1  0  0  0  0
 25 26  1  0  0  0  0
 25 56  1  0  0  0  0
 26 57  1  0  0  0  0
M  END
> <PUBCHEM_COMPOUND_CID>
38028493

> <PUBCHEM_CONFORMER_RMSD>
1.2

> <PUBCHEM_CONFORMER_DIVERSEORDER>
1
32
58
4
56
93
72
61
75
90
35
26
57
29
6
28
43
92
19
76
108
21
49
22
89
99
52
71
34
59
85
107
74
77
81
100
36
8
15
45
23
46
66
54
11
78
97
33
106
53
42
30
102
25
105
87
104
91
20
39
44
48
69
55
83
70
95
18
64
16
65
13
37
94
47
12
84
60
68
38
73
96
5
79
31
63
9
17
40
101
27
86
50
14
62
82
98
24
41
3
67
10
80
103
2
88
7
51

> <PUBCHEM_MMFF94_PARTIAL_CHARGES>
28
1 -0.57
11 -0.28
12 -0.29
13 0.3
14 0.06
17 0.14
18 0.57
19 0.57
2 -0.57
20 0.44
21 0.06
22 -0.14
23 -0.15
24 0.16
25 -0.15
26 0.16
3 -0.73
33 0.15
4 -0.73
47 0.37
48 0.37
5 -0.62
54 0.15
55 0.15
56 0.15
57 0.15
7 0.14
9 0.14

> <PUBCHEM_EFFECTIVE_ROTOR_COUNT>
9.8

> <PUBCHEM_PHARMACOPHORE_FEATURES>
8
1 1 acceptor
1 2 acceptor
1 3 donor
1 4 donor
1 5 acceptor
3 10 15 16 hydrophobe
6 5 22 23 24 25 26 rings
6 6 7 8 9 11 12 rings

> <PUBCHEM_HEAVY_ATOM_COUNT>
26

> <PUBCHEM_ATOM_DEF_STEREO_COUNT>
3

> <PUBCHEM_ATOM_UDEF_STEREO_COUNT>
0

> <PUBCHEM_BOND_DEF_STEREO_COUNT>
0

> <PUBCHEM_BOND_UDEF_STEREO_COUNT>
0

> <PUBCHEM_ISOTOPIC_ATOM_COUNT>
0

> <PUBCHEM_COMPONENT_COUNT>
1

> <PUBCHEM_CACTVS_TAUTO_COUNT>
4

> <PUBCHEM_CONFORMER_ID>
024444CD00000001

> <PUBCHEM_MMFF94_ENERGY>
50.6437

> <PUBCHEM_FEATURE_SELFOVERLAP>
40.596

> <PUBCHEM_SHAPE_FINGERPRINT>
10064457 181 17752768201962298334
11370993 70 17823696562897828419
11578080 2 17822563894191398460
12156800 1 14856899485956125970
12633257 1 18127985113379332985
13224815 77 17917162653688440853
13583140 156 18262233425925746631
14674994 50 16163252212207958210
14955137 171 17703516485372112132
19315092 285 17828446423392870047
20511986 3 18201711886459411721
20764821 26 16892878786693457475
21421861 104 18267882591962318385
23419403 2 17243262021422006010
23559900 14 17559407854925255877
25222932 49 18194966477297130059
35225 105 16528624293651354418
3797600 57 17775287166487729240
463206 1 18260836977169748483
484985 159 16599817706078764626

> <PUBCHEM_SHAPE_MULTIPOLES>
508.39
8.39
3.76
2.55
8.93
0.08
0.53
-0.92
-0.49
-2.62
-1.9
-1.03
-1.77
-1.47

> <PUBCHEM_SHAPE_SELFOVERLAP>
1039.647

> <PUBCHEM_SHAPE_VOLUME>
291.3

> <PUBCHEM_COORDINATE_TYPE>
2
5
10

$$$$
