28959550
  -OEChem-12032416283D

 57 58  0     1  0  0  0  0  0999 V2000
   -6.3342    1.0997   -0.2905 O   0  0  0  0  0  0  0  0  0  0  0  0
    1.6934    2.4452   -1.3726 O   0  0  0  0  0  0  0  0  0  0  0  0
   -5.1020    2.8595    0.4618 O   0  0  0  0  0  0  0  0  0  0  0  0
    0.1170    1.8069    0.1927 N   0  0  0  0  0  0  0  0  0  0  0  0
   -0.6788   -3.1487   -0.3668 N   0  0  0  0  0  0  0  0  0  0  0  0
    2.1577    0.6388    0.0070 N   0  0  0  0  0  0  0  0  0  0  0  0
   -1.6841    0.2753    0.9387 C   0  0  2  0  0  0  0  0  0  0  0  0
   -2.7236    1.3267    0.4679 C   0  0  1  0  0  0  0  0  0  0  0  0
   -2.1567    2.2369   -0.6368 C   0  0  0  0  0  0  0  0  0  0  0  0
   -0.3695    0.9825    1.3091 C   0  0  0  0  0  0  0  0  0  0  0  0
   -1.4236   -0.8436   -0.0763 C   0  0  0  0  0  0  0  0  0  0  0  0
   -0.8192    2.8512   -0.2257 C   0  0  0  0  0  0  0  0  0  0  0  0
   -4.0484    0.7049    0.0269 C   0  0  0  0  0  0  0  0  0  0  0  0
   -0.9360   -2.1064    0.6198 C   0  0  0  0  0  0  0  0  0  0  0  0
    1.3646    1.6883   -0.4556 C   0  0  0  0  0  0  0  0  0  0  0  0
   -5.1786    1.6938    0.1039 C   0  0  0  0  0  0  0  0  0  0  0  0
   -1.9286   -3.7955   -0.7711 C   0  0  0  0  0  0  0  0  0  0  0  0
    0.2577   -4.1411    0.1635 C   0  0  0  0  0  0  0  0  0  0  0  0
   -1.6833   -4.8388   -1.8479 C   0  0  0  0  0  0  0  0  0  0  0  0
   -0.3223   -4.8509    1.3750 C   0  0  0  0  0  0  0  0  0  0  0  0
    3.5731    0.5785    0.0349 C   0  0  0  0  0  0  0  0  0  0  0  0
    4.2130   -0.5557    0.5346 C   0  0  0  0  0  0  0  0  0  0  0  0
    4.3264    1.6535   -0.4368 C   0  0  0  0  0  0  0  0  0  0  0  0
    5.6064   -0.6151    0.5625 C   0  0  0  0  0  0  0  0  0  0  0  0
    5.7197    1.5942   -0.4090 C   0  0  0  0  0  0  0  0  0  0  0  0
    6.3598    0.4599    0.0907 C   0  0  0  0  0  0  0  0  0  0  0  0
   -2.0887   -0.1767    1.8550 H   0  0  0  0  0  0  0  0  0  0  0  0
   -2.9172    1.9679    1.3408 H   0  0  0  0  0  0  0  0  0  0  0  0
   -2.8571    3.0432   -0.8796 H   0  0  0  0  0  0  0  0  0  0  0  0
   -2.0131    1.6536   -1.5555 H   0  0  0  0  0  0  0  0  0  0  0  0
   -0.5500    1.6707    2.1454 H   0  0  0  0  0  0  0  0  0  0  0  0
    0.3784    0.2780    1.6729 H   0  0  0  0  0  0  0  0  0  0  0  0
   -0.7037   -0.5266   -0.8405 H   0  0  0  0  0  0  0  0  0  0  0  0
   -2.3467   -1.0709   -0.6127 H   0  0  0  0  0  0  0  0  0  0  0  0
   -0.4140    3.4369   -1.0563 H   0  0  0  0  0  0  0  0  0  0  0  0
   -0.9534    3.5350    0.6209 H   0  0  0  0  0  0  0  0  0  0  0  0
   -3.9911    0.3374   -1.0035 H   0  0  0  0  0  0  0  0  0  0  0  0
   -4.3066   -0.1282    0.6914 H   0  0  0  0  0  0  0  0  0  0  0  0
   -1.6667   -2.4215    1.3758 H   0  0  0  0  0  0  0  0  0  0  0  0
   -0.0102   -1.8615    1.1537 H   0  0  0  0  0  0  0  0  0  0  0  0
   -2.4988   -4.2263    0.0596 H   0  0  0  0  0  0  0  0  0  0  0  0
   -2.5926   -3.0526   -1.2268 H   0  0  0  0  0  0  0  0  0  0  0  0
    0.5663   -4.8647   -0.5983 H   0  0  0  0  0  0  0  0  0  0  0  0
    1.1909   -3.6400    0.4531 H   0  0  0  0  0  0  0  0  0  0  0  0
    1.6928   -0.1767    0.3915 H   0  0  0  0  0  0  0  0  0  0  0  0
   -2.6388   -5.1345   -2.2958 H   0  0  0  0  0  0  0  0  0  0  0  0
   -1.0542   -4.4479   -2.6551 H   0  0  0  0  0  0  0  0  0  0  0  0
   -1.2270   -5.7517   -1.4537 H   0  0  0  0  0  0  0  0  0  0  0  0
    0.4458   -5.5162    1.7883 H   0  0  0  0  0  0  0  0  0  0  0  0
   -0.6025   -4.1746    2.1874 H   0  0  0  0  0  0  0  0  0  0  0  0
   -1.1742   -5.4929    1.1348 H   0  0  0  0  0  0  0  0  0  0  0  0
   -7.0946    1.7183   -0.2527 H   0  0  0  0  0  0  0  0  0  0  0  0
    3.6375   -1.4002    0.9051 H   0  0  0  0  0  0  0  0  0  0  0  0
    3.8881    2.5703   -0.8112 H   0  0  0  0  0  0  0  0  0  0  0  0
    6.1047   -1.4980    0.9517 H   0  0  0  0  0  0  0  0  0  0  0  0
    6.3073    2.4331   -0.7704 H   0  0  0  0  0  0  0  0  0  0  0  0
    7.4446    0.4143    0.1138 H   0  0  0  0  0  0  0  0  0  0  0  0
  1 16  1  0  0  0  0
  1 52  1  0  0  0  0
  2 15  2  0  0  0  0
  3 16  2  0  0  0  0
  4 10  1  0  0  0  0
  4 12  1  0  0  0  0
  4 15  1  0  0  0  0
  5 14  1  0  0  0  0
  5 17  1  0  0  0  0
  5 18  1  0  0  0  0
  6 15  1  0  0  0  0
  6 21  1  0  0  0  0
  6 45  1  0  0  0  0
  7  8  1  0  0  0  0
  7 10  1  0  0  0  0
  7 11  1  0  0  0  0
  7 27  1  0  0  0  0
  8  9  1  0  0  0  0
  8 13  1  0  0  0  0
  8 28  1  0  0  0  0
  9 12  1  0  0  0  0
  9 29  1  0  0  0  0
  9 30  1  0  0  0  0
 10 31  1  0  0  0  0
 10 32  1  0  0  0  0
 11 14  1  0  0  0  0
 11 33  1  0  0  0  0
 11 34  1  0  0  0  0
 12 35  1  0  0  0  0
 12 36  1  0  0  0  0
 13 16  1  0  0  0  0
 13 37  1  0  0  0  0
 13 38  1  0  0  0  0
 14 39  1  0  0  0  0
 14 40  1  0  0  0  0
 17 19  1  0  0  0  0
 17 41  1  0  0  0  0
 17 42  1  0  0  0  0
 18 20  1  0  0  0  0
 18 43  1  0  0  0  0
 18 44  1  0  0  0  0
 19 46  1  0  0  0  0
 19 47  1  0  0  0  0
 19 48  1  0  0  0  0
 20 49  1  0  0  0  0
 20 50  1  0  0  0  0
 20 51  1  0  0  0  0
 21 22  2  0  0  0  0
 21 23  1  0  0  0  0
 22 24  1  0  0  0  0
 22 53  1  0  0  0  0
 23 25  2  0  0  0  0
 23 54  1  0  0  0  0
 24 26  2  0  0  0  0
 24 55  1  0  0  0  0
 25 26  1  0  0  0  0
 25 56  1  0  0  0  0
 26 57  1  0  0  0  0
M  END
> <PUBCHEM_COMPOUND_CID>
28959550

> <PUBCHEM_CONFORMER_RMSD>
1

> <PUBCHEM_CONFORMER_DIVERSEORDER>
1
114
22
40
29
107
146
109
12
125
138
2
36
31
86
49
25
126
141
56
11
120
9
76
7
145
148
57
45
118
102
43
101
137
70
87
152
28
95
84
128
81
13
58
60
73
93
42
135
67
51
54
32
97
130
44
129
99
37
46
69
134
151
59
85
144
150
26
94
98
17
78
38
147
19
64
83
149
53
48
62
18
133
4
110
82
35
14
68
119
15
105
127
111
80
90
41
117
3
5
104
124
21
39
61
10
100
96
108
66
79
30
113
89
92
52
72
16
65
75
123
27
8
103
122
142
116
63
34
74
91
132
143
140
47
121
6
106
77
139
88
23
71
136
20
33
50
55
112
24
131
115

> <PUBCHEM_MMFF94_PARTIAL_CHARGES>
27
1 -0.65
10 0.3
12 0.3
13 0.06
14 0.27
15 0.69
16 0.66
17 0.27
18 0.27
2 -0.57
21 0.12
22 -0.15
23 -0.15
24 -0.15
25 -0.15
26 -0.15
3 -0.57
4 -0.66
45 0.37
5 -0.81
52 0.5
53 0.15
54 0.15
55 0.15
56 0.15
57 0.15
6 -0.55

> <PUBCHEM_EFFECTIVE_ROTOR_COUNT>
11.2

> <PUBCHEM_PHARMACOPHORE_FEATURES>
8
1 1 acceptor
1 2 acceptor
1 3 acceptor
1 5 cation
1 6 donor
3 1 3 16 anion
6 21 22 23 24 25 26 rings
6 4 7 8 9 10 12 rings

> <PUBCHEM_HEAVY_ATOM_COUNT>
26

> <PUBCHEM_ATOM_DEF_STEREO_COUNT>
2

> <PUBCHEM_ATOM_UDEF_STEREO_COUNT>
0

> <PUBCHEM_BOND_DEF_STEREO_COUNT>
0

> <PUBCHEM_BOND_UDEF_STEREO_COUNT>
0

> <PUBCHEM_ISOTOPIC_ATOM_COUNT>
0

> <PUBCHEM_COMPONENT_COUNT>
1

> <PUBCHEM_CACTVS_TAUTO_COUNT>
2

> <PUBCHEM_CONFORMER_ID>
01B9E33E00000001

> <PUBCHEM_MMFF94_ENERGY>
60.8747

> <PUBCHEM_FEATURE_SELFOVERLAP>
40.651

> <PUBCHEM_SHAPE_FINGERPRINT>
102385 1 17836928172021885905
10366900 7 17275111622126019016
10483366 6 18268976752594100399
11135926 11 18339073793130209061
11488393 25 17901660467602689913
12553582 1 17544768179903456546
12788726 201 18195236943581733795
1361 2 18336547101405988722
13631057 29 17981891045471832484
138480 1 17328865392387366402
14028597 1 17702677536356556441
14117953 113 18337110052097862532
14790565 3 18411139100080249809
14866123 147 18339360889475597235
15131766 46 15287075959377972468
15403338 16 16807280307363596458
15664445 248 17480872922188090751
15849732 13 18040719164294307789
15927050 60 18413107242979145991
16728300 4 17389924691813570858
17859628 97 18408602535101811923
18681886 176 18408597089606163337
19141452 34 18408603686607000556
20511986 3 17968086565068366600
21033648 29 18340754975757048792
21344244 246 18338509738895477919
21703447 108 17551785245942570952
23402539 116 18413385423800317037
23598288 3 17898026855970626682
3178227 256 18338812173592142305
38695281 34 18338797810772610769
4017518 198 18271813376497776830
532947 4 18267873769825250295
5385378 56 18195255416889818601
6669772 16 18130229246265237710

> <PUBCHEM_SHAPE_MULTIPOLES>
502.52
11.95
6.06
1.11
9.97
10.68
0.11
-9.19
0.11
-5.92
1.09
-0.26
0.85
-1.54

> <PUBCHEM_SHAPE_SELFOVERLAP>
1020.471

> <PUBCHEM_SHAPE_VOLUME>
290.5

> <PUBCHEM_COORDINATE_TYPE>
2
5
10

$$$$
