51136971
  -OEChem-12032416223D

 63 66  0     1  0  0  0  0  0999 V2000
   -5.2887   -1.6783    0.8846 Cl  0  0  0  0  0  0  0  0  0  0  0  0
   -1.2351   -2.1783    0.6713 O   0  0  0  0  0  0  0  0  0  0  0  0
    0.6746   -2.7128   -1.5727 O   0  0  0  0  0  0  0  0  0  0  0  0
   -2.6412   -4.5606    0.1683 O   0  0  0  0  0  0  0  0  0  0  0  0
   -3.1122   -1.0252   -1.2837 O   0  0  0  0  0  0  0  0  0  0  0  0
   -5.7736    3.9936   -0.5774 O   0  0  0  0  0  0  0  0  0  0  0  0
    2.1811   -0.9527    0.1168 N   0  0  0  0  0  0  0  0  0  0  0  0
    4.7170    0.3614    0.1577 N   0  0  0  0  0  0  0  0  0  0  0  0
   -1.9211    0.4865    0.0126 N   0  0  0  0  0  0  0  0  0  0  0  0
    1.1130   -1.7894    0.6350 C   0  0  1  0  0  0  0  0  0  0  0  0
   -0.2586   -1.1199    0.7895 C   0  0  1  0  0  0  0  0  0  0  0  0
    0.7992   -3.0269   -0.1918 C   0  0  1  0  0  0  0  0  0  0  0  0
   -0.5552   -3.4166    0.3885 C   0  0  2  0  0  0  0  0  0  0  0  0
    3.4214   -1.7261   -0.0191 C   0  0  0  0  0  0  0  0  0  0  0  0
    2.4055    0.2002    0.9977 C   0  0  0  0  0  0  0  0  0  0  0  0
   -0.6195   -0.0551   -0.2402 C   0  0  0  0  0  0  0  0  0  0  0  0
    4.5408   -0.8705   -0.6174 C   0  0  0  0  0  0  0  0  0  0  0  0
    3.4902    1.1201    0.4326 C   0  0  0  0  0  0  0  0  0  0  0  0
   -1.4286   -4.2735   -0.5095 C   0  0  0  0  0  0  0  0  0  0  0  0
    5.9219    1.0679    0.0738 C   0  0  0  0  0  0  0  0  0  0  0  0
   -3.0828   -0.0499   -0.5377 C   0  0  0  0  0  0  0  0  0  0  0  0
    6.3767    1.8045    1.1675 C   0  0  0  0  0  0  0  0  0  0  0  0
    6.6681    1.0361   -1.1043 C   0  0  0  0  0  0  0  0  0  0  0  0
   -4.3522    0.6436   -0.1993 C   0  0  0  0  0  0  0  0  0  0  0  0
    7.5777    2.5090    1.0834 C   0  0  0  0  0  0  0  0  0  0  0  0
    7.8691    1.7405   -1.1885 C   0  0  0  0  0  0  0  0  0  0  0  0
    8.3238    2.4770   -0.0947 C   0  0  0  0  0  0  0  0  0  0  0  0
   -4.4769    1.9898   -0.5422 C   0  0  0  0  0  0  0  0  0  0  0  0
   -5.4022   -0.0127    0.4429 C   0  0  0  0  0  0  0  0  0  0  0  0
   -5.6516    2.6800   -0.2429 C   0  0  0  0  0  0  0  0  0  0  0  0
   -6.5771    0.6774    0.7421 C   0  0  0  0  0  0  0  0  0  0  0  0
   -6.7017    2.0236    0.3992 C   0  0  0  0  0  0  0  0  0  0  0  0
   -7.0020    4.6374   -0.2419 C   0  0  0  0  0  0  0  0  0  0  0  0
    1.3945   -2.1521    1.6372 H   0  0  0  0  0  0  0  0  0  0  0  0
   -0.3591   -0.6947    1.7961 H   0  0  0  0  0  0  0  0  0  0  0  0
    1.5330   -3.8314   -0.0784 H   0  0  0  0  0  0  0  0  0  0  0  0
   -0.4234   -3.9116    1.3594 H   0  0  0  0  0  0  0  0  0  0  0  0
    3.7429   -2.1217    0.9540 H   0  0  0  0  0  0  0  0  0  0  0  0
    3.2903   -2.5800   -0.6921 H   0  0  0  0  0  0  0  0  0  0  0  0
    1.5134    0.8079    1.1612 H   0  0  0  0  0  0  0  0  0  0  0  0
    2.7206   -0.1451    1.9930 H   0  0  0  0  0  0  0  0  0  0  0  0
   -0.6266   -0.4838   -1.2482 H   0  0  0  0  0  0  0  0  0  0  0  0
    0.0629    0.7949   -0.2542 H   0  0  0  0  0  0  0  0  0  0  0  0
    4.2981   -0.6248   -1.6593 H   0  0  0  0  0  0  0  0  0  0  0  0
    5.4624   -1.4660   -0.6140 H   0  0  0  0  0  0  0  0  0  0  0  0
    3.6655    1.9242    1.1566 H   0  0  0  0  0  0  0  0  0  0  0  0
    3.1402    1.5907   -0.4953 H   0  0  0  0  0  0  0  0  0  0  0  0
   -1.6945   -3.7448   -1.4302 H   0  0  0  0  0  0  0  0  0  0  0  0
   -0.9309   -5.2155   -0.7591 H   0  0  0  0  0  0  0  0  0  0  0  0
    0.5816   -3.5503   -2.0576 H   0  0  0  0  0  0  0  0  0  0  0  0
   -1.9902    1.2916    0.6285 H   0  0  0  0  0  0  0  0  0  0  0  0
   -3.1788   -5.1106   -0.4268 H   0  0  0  0  0  0  0  0  0  0  0  0
    5.8171    1.8306    2.0989 H   0  0  0  0  0  0  0  0  0  0  0  0
    6.3377    0.4851   -1.9802 H   0  0  0  0  0  0  0  0  0  0  0  0
    7.9335    3.0800    1.9360 H   0  0  0  0  0  0  0  0  0  0  0  0
    8.4489    1.7184   -2.1067 H   0  0  0  0  0  0  0  0  0  0  0  0
    9.2588    3.0256   -0.1604 H   0  0  0  0  0  0  0  0  0  0  0  0
   -3.6668    2.5102   -1.0480 H   0  0  0  0  0  0  0  0  0  0  0  0
   -7.4042    0.1796    1.2422 H   0  0  0  0  0  0  0  0  0  0  0  0
   -7.6409    2.4987    0.6609 H   0  0  0  0  0  0  0  0  0  0  0  0
   -7.8491    4.1898   -0.7729 H   0  0  0  0  0  0  0  0  0  0  0  0
   -7.1589    4.6652    0.8418 H   0  0  0  0  0  0  0  0  0  0  0  0
   -6.9256    5.6759   -0.5803 H   0  0  0  0  0  0  0  0  0  0  0  0
  1 29  1  0  0  0  0
  2 11  1  0  0  0  0
  2 13  1  0  0  0  0
  3 12  1  0  0  0  0
  3 50  1  0  0  0  0
  4 19  1  0  0  0  0
  4 52  1  0  0  0  0
  5 21  2  0  0  0  0
  6 30  1  0  0  0  0
  6 33  1  0  0  0  0
  7 10  1  0  0  0  0
  7 14  1  0  0  0  0
  7 15  1  0  0  0  0
  8 17  1  0  0  0  0
  8 18  1  0  0  0  0
  8 20  1  0  0  0  0
  9 16  1  0  0  0  0
  9 21  1  0  0  0  0
  9 51  1  0  0  0  0
 10 11  1  0  0  0  0
 10 12  1  0  0  0  0
 10 34  1  0  0  0  0
 11 16  1  0  0  0  0
 11 35  1  0  0  0  0
 12 13  1  0  0  0  0
 12 36  1  0  0  0  0
 13 19  1  0  0  0  0
 13 37  1  0  0  0  0
 14 17  1  0  0  0  0
 14 38  1  0  0  0  0
 14 39  1  0  0  0  0
 15 18  1  0  0  0  0
 15 40  1  0  0  0  0
 15 41  1  0  0  0  0
 16 42  1  0  0  0  0
 16 43  1  0  0  0  0
 17 44  1  0  0  0  0
 17 45  1  0  0  0  0
 18 46  1  0  0  0  0
 18 47  1  0  0  0  0
 19 48  1  0  0  0  0
 19 49  1  0  0  0  0
 20 22  2  0  0  0  0
 20 23  1  0  0  0  0
 21 24  1  0  0  0  0
 22 25  1  0  0  0  0
 22 53  1  0  0  0  0
 23 26  2  0  0  0  0
 23 54  1  0  0  0  0
 24 28  1  0  0  0  0
 24 29  2  0  0  0  0
 25 27  2  0  0  0  0
 25 55  1  0  0  0  0
 26 27  1  0  0  0  0
 26 56  1  0  0  0  0
 27 57  1  0  0  0  0
 28 30  2  0  0  0  0
 28 58  1  0  0  0  0
 29 31  1  0  0  0  0
 30 32  1  0  0  0  0
 31 32  2  0  0  0  0
 31 59  1  0  0  0  0
 32 60  1  0  0  0  0
 33 61  1  0  0  0  0
 33 62  1  0  0  0  0
 33 63  1  0  0  0  0
M  END
> <PUBCHEM_COMPOUND_CID>
51136971

> <PUBCHEM_CONFORMER_RMSD>
1

> <PUBCHEM_CONFORMER_DIVERSEORDER>
1
36
24
62
54
33
28
31
3
67
45
14
40
63
53
43
30
46
57
29
58
5
22
48
11
56
8
7
42
32
59
23
39
25
66
16
49
55
19
2
10
37
12
61
38
6
27
17
9
65
64
50
35
18
21
51
60
15
13
20
26
44
34
41
52
47
4

> <PUBCHEM_MMFF94_PARTIAL_CHARGES>
44
1 -0.18
10 0.27
11 0.28
12 0.28
13 0.28
14 0.27
15 0.27
16 0.3
17 0.37
18 0.37
19 0.28
2 -0.56
20 0.1
21 0.54
22 -0.15
23 -0.15
24 0.09
25 -0.15
26 -0.15
27 -0.15
28 -0.15
29 0.18
3 -0.68
30 0.08
31 -0.15
32 -0.15
33 0.28
4 -0.68
5 -0.57
50 0.4
51 0.37
52 0.4
53 0.15
54 0.15
55 0.15
56 0.15
57 0.15
58 0.15
59 0.15
6 -0.36
60 0.15
7 -0.81
8 -0.84
9 -0.73

> <PUBCHEM_EFFECTIVE_ROTOR_COUNT>
10.2

> <PUBCHEM_PHARMACOPHORE_FEATURES>
14
1 2 acceptor
1 3 acceptor
1 3 donor
1 4 acceptor
1 4 donor
1 5 acceptor
1 6 acceptor
1 7 cation
1 8 cation
1 9 donor
5 2 10 11 12 13 rings
6 20 22 23 25 26 27 rings
6 24 28 29 30 31 32 rings
6 7 8 14 15 17 18 rings

> <PUBCHEM_HEAVY_ATOM_COUNT>
33

> <PUBCHEM_ATOM_DEF_STEREO_COUNT>
4

> <PUBCHEM_ATOM_UDEF_STEREO_COUNT>
0

> <PUBCHEM_BOND_DEF_STEREO_COUNT>
0

> <PUBCHEM_BOND_UDEF_STEREO_COUNT>
0

> <PUBCHEM_ISOTOPIC_ATOM_COUNT>
0

> <PUBCHEM_COMPONENT_COUNT>
1

> <PUBCHEM_CACTVS_TAUTO_COUNT>
2

> <PUBCHEM_CONFORMER_ID>
030C49CB00000001

> <PUBCHEM_MMFF94_ENERGY>
112.3448

> <PUBCHEM_FEATURE_SELFOVERLAP>
71.056

> <PUBCHEM_SHAPE_FINGERPRINT>
10 15 18187085057404694217
10050765 1 18410292532378662170
10190206 1 18268135625813762367
10280341 67 18340472418532916904
10369192 42 18410292519054955981
11007060 377 18341613775820569587
11135609 127 18121490255640065069
11135609 187 18413389821935986032
11621639 254 18198054979620398527
12133447 93 18337966610068805508
12522641 68 18272929427422104591
12539747 72 18334007332978391928
12539765 74 18130511820805836438
12760667 363 9943532916026934078
12895836 83 18410853278416845978
12988421 55 17676475155568301755
13248334 5 17977381633889528331
13540713 4 18340223950564602510
13540713 5 18263623170027507610
13726171 33 18336831892836203673
14294032 229 18410012182212903694
14340393 91 10447933871164637018
14395042 24 17968950828805840747
14790565 3 18409731764119920709
14931854 50 17775004553229011096
15183329 4 16630813201053199864
15198563 99 17983845968166454655
15400415 2 18337671885380911385
15439362 3 18339923693373522998
15604295 49 18124032601686934904
15803439 3 16988837285201313198
16126227 98 18410014359634800169
16992610 120 18262252088086045380
16994733 274 18260546701594818176
18608769 82 18267588085938981867
19304671 126 17916309329243661245
2026 5 8862939472898802665
20691028 202 18409448068307956396
21033648 29 18114471093118729730
21133410 127 17970628476321116732
21298829 104 18408886226683191124
21424621 283 18410012113377440928
21585482 111 18262799545080703692
21756936 100 18340200886199092391
23191077 185 18337098008488292875
23522609 53 17271445696236583329
23559900 14 17834110841622700667
23569914 152 17557440786559702918
23569914 2 17056358367757938608
24771293 8 18333170569890718077
25269216 80 17131257061503383645
2838139 119 18341043121043705572
3918712 181 18340761555588995432
406291 66 9222936080785578421
4073 2 18186807959063137195
4403749 210 18334293180701463195
44249763 50 18129655443751832826
5718773 13 9367340435992144560
5758199 1 18410858763158687089
58902169 19 13901643968950209698
6327066 14 18410291406621437580
636775 72 18340200925181358960
9689198 14 18343025493026952124
9896288 288 18116716412117780290

> <PUBCHEM_SHAPE_MULTIPOLES>
636.7
23.27
5.34
1.06
20.3
1.5
0.06
-32.24
-0.06
-7.44
0.58
0.78
-0.01
1.32

> <PUBCHEM_SHAPE_SELFOVERLAP>
1347.005

> <PUBCHEM_SHAPE_VOLUME>
355.9

> <PUBCHEM_COORDINATE_TYPE>
2
5
10

$$$$
