45360758
  -OEChem-12032416393D

 63 65  0     1  0  0  0  0  0999 V2000
    0.1057   -4.8508   -0.6298 O   0  0  0  0  0  0  0  0  0  0  0  0
   -4.9383    1.2399    1.8809 O   0  0  0  0  0  0  0  0  0  0  0  0
    7.6489    1.9584    0.9794 O   0  0  0  0  0  0  0  0  0  0  0  0
   -1.5543   -1.6150   -0.3169 N   0  0  1  0  0  0  0  0  0  0  0  0
   -1.5015   -4.1751    0.8307 N   0  0  0  0  0  0  0  0  0  0  0  0
    1.7820   -0.2228   -0.0584 N   0  0  0  0  0  0  0  0  0  0  0  0
   -5.0207    2.3109   -0.1746 N   0  0  0  0  0  0  0  0  0  0  0  0
   -0.8010   -2.6624   -1.0183 C   0  0  1  0  0  0  0  0  0  0  0  0
    0.5113   -0.6596   -0.6142 C   0  0  1  0  0  0  0  0  0  0  0  0
   -2.7315   -2.0975    0.3966 C   0  0  1  0  0  0  0  0  0  0  0  0
    0.5838   -2.0423   -1.2627 C   0  0  0  0  0  0  0  0  0  0  0  0
   -0.5867   -0.8139    0.4292 C   0  0  0  0  0  0  0  0  0  0  0  0
   -2.3492   -3.1611    1.4139 C   0  0  0  0  0  0  0  0  0  0  0  0
   -0.6751   -3.9738   -0.2484 C   0  0  0  0  0  0  0  0  0  0  0  0
   -3.5300   -0.9710    1.0539 C   0  0  0  0  0  0  0  0  0  0  0  0
   -3.8787    0.1192    0.0456 C   0  0  0  0  0  0  0  0  0  0  0  0
    2.6613    0.2893   -1.1018 C   0  0  0  0  0  0  0  0  0  0  0  0
   -4.6579    1.2641    0.6796 C   0  0  0  0  0  0  0  0  0  0  0  0
    3.9888    0.7341   -0.5480 C   0  0  0  0  0  0  0  0  0  0  0  0
    4.0888    1.9450    0.1372 C   0  0  0  0  0  0  0  0  0  0  0  0
    5.1188   -0.0654   -0.7199 C   0  0  0  0  0  0  0  0  0  0  0  0
   -4.7119    2.3837   -1.6007 C   0  0  0  0  0  0  0  0  0  0  0  0
   -5.7773    3.4392    0.3539 C   0  0  0  0  0  0  0  0  0  0  0  0
    5.3188    2.3566    0.6501 C   0  0  0  0  0  0  0  0  0  0  0  0
    6.3489    0.3462   -0.2070 C   0  0  0  0  0  0  0  0  0  0  0  0
   -3.3851    3.0716   -1.8465 C   0  0  0  0  0  0  0  0  0  0  0  0
   -7.2699    3.2030    0.2509 C   0  0  0  0  0  0  0  0  0  0  0  0
    6.4489    1.5571    0.4780 C   0  0  0  0  0  0  0  0  0  0  0  0
    8.7632    1.0927    0.7673 C   0  0  0  0  0  0  0  0  0  0  0  0
   -1.2936   -2.8930   -1.9702 H   0  0  0  0  0  0  0  0  0  0  0  0
    0.1549    0.0693   -1.3580 H   0  0  0  0  0  0  0  0  0  0  0  0
   -3.3893   -2.5651   -0.3502 H   0  0  0  0  0  0  0  0  0  0  0  0
    1.3857   -2.6434   -0.8167 H   0  0  0  0  0  0  0  0  0  0  0  0
    0.7956   -1.9495   -2.3342 H   0  0  0  0  0  0  0  0  0  0  0  0
   -0.2146   -1.3361    1.3191 H   0  0  0  0  0  0  0  0  0  0  0  0
   -0.9739    0.1630    0.7342 H   0  0  0  0  0  0  0  0  0  0  0  0
   -1.8087   -2.7416    2.2695 H   0  0  0  0  0  0  0  0  0  0  0  0
   -3.2398   -3.6670    1.8022 H   0  0  0  0  0  0  0  0  0  0  0  0
   -2.9713   -0.5384    1.8939 H   0  0  0  0  0  0  0  0  0  0  0  0
   -4.4530   -1.3825    1.4830 H   0  0  0  0  0  0  0  0  0  0  0  0
   -1.4232   -5.0603    1.3219 H   0  0  0  0  0  0  0  0  0  0  0  0
    1.6099    0.5169    0.6230 H   0  0  0  0  0  0  0  0  0  0  0  0
   -2.9801    0.5399   -0.4100 H   0  0  0  0  0  0  0  0  0  0  0  0
   -4.4981   -0.3226   -0.7430 H   0  0  0  0  0  0  0  0  0  0  0  0
    2.1998    1.1431   -1.6158 H   0  0  0  0  0  0  0  0  0  0  0  0
    2.8322   -0.4760   -1.8693 H   0  0  0  0  0  0  0  0  0  0  0  0
    3.2157    2.5770    0.2767 H   0  0  0  0  0  0  0  0  0  0  0  0
    5.0542   -1.0123   -1.2495 H   0  0  0  0  0  0  0  0  0  0  0  0
   -5.5177    2.9167   -2.1179 H   0  0  0  0  0  0  0  0  0  0  0  0
   -4.6803    1.3788   -2.0292 H   0  0  0  0  0  0  0  0  0  0  0  0
   -5.4919    4.3532   -0.1784 H   0  0  0  0  0  0  0  0  0  0  0  0
   -5.5133    3.5860    1.4073 H   0  0  0  0  0  0  0  0  0  0  0  0
    5.3906    3.3008    1.1829 H   0  0  0  0  0  0  0  0  0  0  0  0
    7.1856   -0.3231   -0.3758 H   0  0  0  0  0  0  0  0  0  0  0  0
   -3.1650    3.0992   -2.9183 H   0  0  0  0  0  0  0  0  0  0  0  0
   -2.5596    2.5590   -1.3441 H   0  0  0  0  0  0  0  0  0  0  0  0
   -3.4016    4.1031   -1.4794 H   0  0  0  0  0  0  0  0  0  0  0  0
   -7.8196    4.0541    0.6647 H   0  0  0  0  0  0  0  0  0  0  0  0
   -7.5671    2.3049    0.8025 H   0  0  0  0  0  0  0  0  0  0  0  0
   -7.5816    3.0710   -0.7902 H   0  0  0  0  0  0  0  0  0  0  0  0
    9.6341    1.5675    1.2309 H   0  0  0  0  0  0  0  0  0  0  0  0
    8.9894    0.9816   -0.2986 H   0  0  0  0  0  0  0  0  0  0  0  0
    8.6230    0.1270    1.2648 H   0  0  0  0  0  0  0  0  0  0  0  0
  1 14  2  0  0  0  0
  2 18  2  0  0  0  0
  3 28  1  0  0  0  0
  3 29  1  0  0  0  0
  4  8  1  0  0  0  0
  4 10  1  0  0  0  0
  4 12  1  0  0  0  0
  5 13  1  0  0  0  0
  5 14  1  0  0  0  0
  5 41  1  0  0  0  0
  6  9  1  0  0  0  0
  6 17  1  0  0  0  0
  6 42  1  0  0  0  0
  7 18  1  0  0  0  0
  7 22  1  0  0  0  0
  7 23  1  0  0  0  0
  8 11  1  0  0  0  0
  8 14  1  0  0  0  0
  8 30  1  0  0  0  0
  9 11  1  0  0  0  0
  9 12  1  0  0  0  0
  9 31  1  0  0  0  0
 10 13  1  0  0  0  0
 10 15  1  0  0  0  0
 10 32  1  0  0  0  0
 11 33  1  0  0  0  0
 11 34  1  0  0  0  0
 12 35  1  0  0  0  0
 12 36  1  0  0  0  0
 13 37  1  0  0  0  0
 13 38  1  0  0  0  0
 15 16  1  0  0  0  0
 15 39  1  0  0  0  0
 15 40  1  0  0  0  0
 16 18  1  0  0  0  0
 16 43  1  0  0  0  0
 16 44  1  0  0  0  0
 17 19  1  0  0  0  0
 17 45  1  0  0  0  0
 17 46  1  0  0  0  0
 19 20  2  0  0  0  0
 19 21  1  0  0  0  0
 20 24  1  0  0  0  0
 20 47  1  0  0  0  0
 21 25  2  0  0  0  0
 21 48  1  0  0  0  0
 22 26  1  0  0  0  0
 22 49  1  0  0  0  0
 22 50  1  0  0  0  0
 23 27  1  0  0  0  0
 23 51  1  0  0  0  0
 23 52  1  0  0  0  0
 24 28  2  0  0  0  0
 24 53  1  0  0  0  0
 25 28  1  0  0  0  0
 25 54  1  0  0  0  0
 26 55  1  0  0  0  0
 26 56  1  0  0  0  0
 26 57  1  0  0  0  0
 27 58  1  0  0  0  0
 27 59  1  0  0  0  0
 27 60  1  0  0  0  0
 29 61  1  0  0  0  0
 29 62  1  0  0  0  0
 29 63  1  0  0  0  0
M  END
> <PUBCHEM_COMPOUND_CID>
45360758

> <PUBCHEM_CONFORMER_RMSD>
1

> <PUBCHEM_CONFORMER_DIVERSEORDER>
1
128
181
192
205
219
187
70
4
124
230
90
186
158
251
281
55
54
127
279
222
58
220
113
154
217
238
74
266
258
223
280
110
195
270
221
33
167
175
257
139
147
215
132
269
274
109
172
185
233
267
225
169
49
96
103
56
211
282
73
117
232
151
236
38
245
208
168
145
95
43
144
253
87
184
97
227
126
176
63
259
241
261
229
99
15
163
146
76
250
59
179
191
37
252
138
249
240
183
206
247
53
164
80
136
40
264
112
268
214
123
159
36
148
271
102
263
75
17
157
177
61
34
141
62
71
118
194
44
228
171
278
122
84
204
226
224
130
178
39
210
20
243
156
153
79
218
31
89
199
25
64
88
114
13
78
198
105
150
273
207
100
188
107
29
235
231
173
104
193
246
93
46
51
83
239
142
197
48
189
135
26
212
166
242
209
200
213
52
134
216
3
119
275
115
2
202
23
28
65
116
57
260
272
47
277
94
108
45
234
155
161
237
8
82
42
67
50
203
125
35
85
254
143
19
256
92
283
160
91
174
201
30
21
14
152
162
101
22
12
86
77
121
81
68
32
265
18
244
7
140
41
60
106
276
190
196
16
149
131
120
248
9
10
69
72
11
262
182
27
129
137
24
66
133
180
255
111
98
165
5
6
170

> <PUBCHEM_MMFF94_PARTIAL_CHARGES>
31
1 -0.57
10 0.27
12 0.27
13 0.3
14 0.57
16 0.06
17 0.41
18 0.57
19 -0.14
2 -0.57
20 -0.15
21 -0.15
22 0.3
23 0.3
24 -0.15
25 -0.15
28 0.08
29 0.28
3 -0.36
4 -0.81
41 0.37
42 0.36
47 0.15
48 0.15
5 -0.73
53 0.15
54 0.15
6 -0.9
7 -0.66
8 0.33
9 0.27

> <PUBCHEM_EFFECTIVE_ROTOR_COUNT>
11.2

> <PUBCHEM_PHARMACOPHORE_FEATURES>
10
1 1 acceptor
1 2 acceptor
1 3 acceptor
1 4 cation
1 5 donor
1 6 cation
1 6 donor
5 4 8 9 11 12 rings
6 19 20 21 24 25 28 rings
6 4 5 8 10 13 14 rings

> <PUBCHEM_HEAVY_ATOM_COUNT>
29

> <PUBCHEM_ATOM_DEF_STEREO_COUNT>
3

> <PUBCHEM_ATOM_UDEF_STEREO_COUNT>
0

> <PUBCHEM_BOND_DEF_STEREO_COUNT>
0

> <PUBCHEM_BOND_UDEF_STEREO_COUNT>
0

> <PUBCHEM_ISOTOPIC_ATOM_COUNT>
0

> <PUBCHEM_COMPONENT_COUNT>
1

> <PUBCHEM_CACTVS_TAUTO_COUNT>
3

> <PUBCHEM_CONFORMER_ID>
02B4267600000001

> <PUBCHEM_MMFF94_ENERGY>
68.0116

> <PUBCHEM_FEATURE_SELFOVERLAP>
50.934

> <PUBCHEM_SHAPE_FINGERPRINT>
10074138 170 17968385653505303691
105312 117 18411139147213568119
10577160 103 11671482540184582718
11135609 201 18410290273341162017
11297750 10 17413579898543436619
12107183 9 18334292089705930072
12422481 6 17748829583559441276
12925494 130 18408889512053461226
12988421 55 18340496590497134161
13673619 4 12179846108830485796
14950920 106 16226624007777961529
15021287 119 17095804421029791492
15326921 28 18262781996086574140
19053607 189 17606417453692647357
19304671 126 17701550493703926557
21033648 29 18336274474056704652
21133410 32 15338258199358895373
21307412 95 9078838425466871139
21859007 373 18335984169286649084
22288116 15 10015594930424940920
229767 44 18261114084065122173
23522609 53 17532670108156855940
25019877 29 18058745718426622311
3459 39 18340474625791776296
397638 26 18409445873917252352
4112364 45 18116147783916036379
4144715 1 18193280921855493928
437815 12 9583225142381552005
4938544 92 18337953514823353486
5219985 13 18410015412070417791
6086070 43 16773786048598847474
6327066 14 18411417281143858109
636775 8 7853577937782089776
6371380 46 18339373950877391782
9896288 288 18188496903023097330
9981440 41 18336838541298137763
9982175 41 15575540350485258605
999808 66 12540688224396312448

> <PUBCHEM_SHAPE_MULTIPOLES>
559.27
19.78
5.59
1.35
28.02
4.94
0.13
-27.24
-5.63
-7.77
0.22
-1
-0.22
2.2

> <PUBCHEM_SHAPE_SELFOVERLAP>
1153.133

> <PUBCHEM_SHAPE_VOLUME>
321.7

> <PUBCHEM_COORDINATE_TYPE>
2
5
10

$$$$
