71693712
  -OEChem-12032416233D

 57 59  0     1  0  0  0  0  0999 V2000
   -1.6076    2.2263   -1.3174 O   0  0  0  0  0  0  0  0  0  0  0  0
   -5.3961   -3.1389   -0.1280 O   0  0  0  0  0  0  0  0  0  0  0  0
   -3.4944    1.0386    2.8298 O   0  0  0  0  0  0  0  0  0  0  0  0
   -4.5553    0.5958   -1.9177 O   0  0  0  0  0  0  0  0  0  0  0  0
    5.3415    0.9213    0.7616 O   0  0  0  0  0  0  0  0  0  0  0  0
   -3.1505    0.3874   -0.0656 N   0  0  0  0  0  0  0  0  0  0  0  0
    3.8996   -0.6022   -0.3017 N   0  0  0  0  0  0  0  0  0  0  0  0
    6.1574   -1.0615   -0.1023 N   0  0  0  0  0  0  0  0  0  0  0  0
   -3.6372   -0.9085    0.3369 C   0  0  0  0  0  0  0  0  0  0  0  0
   -2.2045    1.0750    0.8200 C   0  0  1  0  0  0  0  0  0  0  0  0
   -1.1936    1.9410    0.0231 C   0  0  1  0  0  0  0  0  0  0  0  0
   -5.1297   -0.8597    0.6674 C   0  0  0  0  0  0  0  0  0  0  0  0
   -3.3675   -1.9537   -0.7461 C   0  0  0  0  0  0  0  0  0  0  0  0
   -3.6594    1.0256   -1.1940 C   0  0  0  0  0  0  0  0  0  0  0  0
   -5.6603   -2.2568    0.9627 C   0  0  0  0  0  0  0  0  0  0  0  0
   -3.9979   -3.2894   -0.3731 C   0  0  0  0  0  0  0  0  0  0  0  0
   -2.9524    1.9154    1.8636 C   0  0  0  0  0  0  0  0  0  0  0  0
   -3.0062    2.3597   -1.4651 C   0  0  0  0  0  0  0  0  0  0  0  0
    0.1613    1.2639   -0.0630 C   0  0  0  0  0  0  0  0  0  0  0  0
    0.2812    0.0185   -0.6798 C   0  0  0  0  0  0  0  0  0  0  0  0
    1.2875    1.8872    0.4746 C   0  0  0  0  0  0  0  0  0  0  0  0
    1.5272   -0.6033   -0.7593 C   0  0  0  0  0  0  0  0  0  0  0  0
    2.5335    1.2655    0.3952 C   0  0  0  0  0  0  0  0  0  0  0  0
    2.6533    0.0201   -0.2218 C   0  0  0  0  0  0  0  0  0  0  0  0
    5.1426   -0.1404    0.1762 C   0  0  0  0  0  0  0  0  0  0  0  0
    7.5370   -0.8519    0.2721 C   0  0  0  0  0  0  0  0  0  0  0  0
    8.2166   -2.1813    0.5761 C   0  0  0  0  0  0  0  0  0  0  0  0
    8.2738   -0.0935   -0.8243 C   0  0  0  0  0  0  0  0  0  0  0  0
   -3.1019   -1.2274    1.2405 H   0  0  0  0  0  0  0  0  0  0  0  0
   -1.6495    0.3065    1.3756 H   0  0  0  0  0  0  0  0  0  0  0  0
   -1.0619    2.9106    0.5192 H   0  0  0  0  0  0  0  0  0  0  0  0
   -5.7118   -0.4604   -0.1688 H   0  0  0  0  0  0  0  0  0  0  0  0
   -5.3238   -0.2028    1.5210 H   0  0  0  0  0  0  0  0  0  0  0  0
   -2.2902   -2.0840   -0.8945 H   0  0  0  0  0  0  0  0  0  0  0  0
   -3.7841   -1.6482   -1.7110 H   0  0  0  0  0  0  0  0  0  0  0  0
   -5.2178   -2.6660    1.8786 H   0  0  0  0  0  0  0  0  0  0  0  0
   -6.7447   -2.2213    1.1081 H   0  0  0  0  0  0  0  0  0  0  0  0
   -3.5175   -3.7236    0.5117 H   0  0  0  0  0  0  0  0  0  0  0  0
   -3.8776   -4.0016   -1.1957 H   0  0  0  0  0  0  0  0  0  0  0  0
   -3.7645    2.5019    1.4240 H   0  0  0  0  0  0  0  0  0  0  0  0
   -2.2682    2.5914    2.3864 H   0  0  0  0  0  0  0  0  0  0  0  0
   -3.2093    2.6472   -2.5012 H   0  0  0  0  0  0  0  0  0  0  0  0
   -3.4056    3.1365   -0.8062 H   0  0  0  0  0  0  0  0  0  0  0  0
   -0.5805   -0.4743   -1.1177 H   0  0  0  0  0  0  0  0  0  0  0  0
    1.2090    2.8572    0.9585 H   0  0  0  0  0  0  0  0  0  0  0  0
   -3.9635    1.5843    3.4837 H   0  0  0  0  0  0  0  0  0  0  0  0
    1.6066   -1.5722   -1.2459 H   0  0  0  0  0  0  0  0  0  0  0  0
    3.3574    1.8103    0.8340 H   0  0  0  0  0  0  0  0  0  0  0  0
    3.9097   -1.5078   -0.7646 H   0  0  0  0  0  0  0  0  0  0  0  0
    7.5539   -0.2409    1.1826 H   0  0  0  0  0  0  0  0  0  0  0  0
    5.9260   -1.8805   -0.6565 H   0  0  0  0  0  0  0  0  0  0  0  0
    8.2222   -2.8358   -0.3027 H   0  0  0  0  0  0  0  0  0  0  0  0
    7.6905   -2.7111    1.3778 H   0  0  0  0  0  0  0  0  0  0  0  0
    9.2530   -2.0280    0.8941 H   0  0  0  0  0  0  0  0  0  0  0  0
    8.2685   -0.6532   -1.7663 H   0  0  0  0  0  0  0  0  0  0  0  0
    7.8016    0.8763   -1.0160 H   0  0  0  0  0  0  0  0  0  0  0  0
    9.3158    0.0892   -0.5417 H   0  0  0  0  0  0  0  0  0  0  0  0
  1 11  1  0  0  0  0
  1 18  1  0  0  0  0
  2 15  1  0  0  0  0
  2 16  1  0  0  0  0
  3 17  1  0  0  0  0
  3 46  1  0  0  0  0
  4 14  2  0  0  0  0
  5 25  2  0  0  0  0
  6  9  1  0  0  0  0
  6 10  1  0  0  0  0
  6 14  1  0  0  0  0
  7 24  1  0  0  0  0
  7 25  1  0  0  0  0
  7 49  1  0  0  0  0
  8 25  1  0  0  0  0
  8 26  1  0  0  0  0
  8 51  1  0  0  0  0
  9 12  1  0  0  0  0
  9 13  1  0  0  0  0
  9 29  1  0  0  0  0
 10 11  1  0  0  0  0
 10 17  1  0  0  0  0
 10 30  1  0  0  0  0
 11 19  1  0  0  0  0
 11 31  1  0  0  0  0
 12 15  1  0  0  0  0
 12 32  1  0  0  0  0
 12 33  1  0  0  0  0
 13 16  1  0  0  0  0
 13 34  1  0  0  0  0
 13 35  1  0  0  0  0
 14 18  1  0  0  0  0
 15 36  1  0  0  0  0
 15 37  1  0  0  0  0
 16 38  1  0  0  0  0
 16 39  1  0  0  0  0
 17 40  1  0  0  0  0
 17 41  1  0  0  0  0
 18 42  1  0  0  0  0
 18 43  1  0  0  0  0
 19 20  2  0  0  0  0
 19 21  1  0  0  0  0
 20 22  1  0  0  0  0
 20 44  1  0  0  0  0
 21 23  2  0  0  0  0
 21 45  1  0  0  0  0
 22 24  2  0  0  0  0
 22 47  1  0  0  0  0
 23 24  1  0  0  0  0
 23 48  1  0  0  0  0
 26 27  1  0  0  0  0
 26 28  1  0  0  0  0
 26 50  1  0  0  0  0
 27 52  1  0  0  0  0
 27 53  1  0  0  0  0
 27 54  1  0  0  0  0
 28 55  1  0  0  0  0
 28 56  1  0  0  0  0
 28 57  1  0  0  0  0
M  END
> <PUBCHEM_COMPOUND_CID>
71693712

> <PUBCHEM_CONFORMER_RMSD>
1

> <PUBCHEM_CONFORMER_DIVERSEORDER>
1
21
31
11
25
28
14
9
24
16
17
6
27
3
10
12
29
18
13
30
20
8
7
2
19
22
5
26
15
4
23

> <PUBCHEM_MMFF94_PARTIAL_CHARGES>
31
1 -0.56
10 0.3
11 0.42
14 0.57
15 0.28
16 0.28
17 0.28
18 0.34
19 -0.14
2 -0.56
20 -0.15
21 -0.15
22 -0.15
23 -0.15
24 0.12
25 0.69
26 0.3
3 -0.68
4 -0.57
44 0.15
45 0.15
46 0.4
47 0.15
48 0.15
49 0.37
5 -0.57
51 0.37
6 -0.66
7 -0.55
8 -0.73
9 0.3

> <PUBCHEM_EFFECTIVE_ROTOR_COUNT>
9.2

> <PUBCHEM_PHARMACOPHORE_FEATURES>
12
1 1 acceptor
1 2 acceptor
1 3 acceptor
1 3 donor
1 4 acceptor
1 5 acceptor
1 7 donor
1 8 donor
3 26 27 28 hydrophobe
6 1 6 10 11 14 18 rings
6 19 20 21 22 23 24 rings
6 2 9 12 13 15 16 rings

> <PUBCHEM_HEAVY_ATOM_COUNT>
28

> <PUBCHEM_ATOM_DEF_STEREO_COUNT>
2

> <PUBCHEM_ATOM_UDEF_STEREO_COUNT>
0

> <PUBCHEM_BOND_DEF_STEREO_COUNT>
0

> <PUBCHEM_BOND_UDEF_STEREO_COUNT>
0

> <PUBCHEM_ISOTOPIC_ATOM_COUNT>
0

> <PUBCHEM_COMPONENT_COUNT>
1

> <PUBCHEM_CACTVS_TAUTO_COUNT>
6

> <PUBCHEM_CONFORMER_ID>
0445F59000000001

> <PUBCHEM_MMFF94_ENERGY>
74.9386

> <PUBCHEM_FEATURE_SELFOVERLAP>
60.946

> <PUBCHEM_SHAPE_FINGERPRINT>
11315181 36 18411139125702113512
117089 54 17754184394535809947
11963148 33 18336820906574428618
12091667 2 17530970151167992844
12166972 35 18113621214118345324
12643181 29 18336257964429148511
12760667 363 18271522100510781855
13631057 29 18410008853397283214
13690498 29 18186234043620170741
13782708 43 18408602531761574594
14556957 393 16153718591712272414
14849402 71 14619644870667601090
14856354 85 18060427910533240428
14950920 106 16701460211883050147
15183329 4 11746938685924487746
15461852 350 18260272933007410502
17780758 139 18131637776942717003
17913733 40 15554452881764466486
18335252 98 18410293649538455770
18927931 339 17968383355307305860
20505436 4 16879904137501324409
21033650 10 16877931712393408309
21150785 3 16588026836019629198
21307412 95 17969776570649736747
23522609 53 18121534369334233692
23559900 14 18337659905989791692
392239 28 17631743793283204443
397830 11 18270667775833844832
4073 2 18129949970986586510
484985 159 18342459240617934171
5104073 3 17989203746831302848
531348 171 17823971243425953196
54039377 194 18040724696602613939
5718773 13 18338514269764474891
636775 8 18341903957709066478
6700243 42 18124064297991140540
9953998 17 17989491796653694866
999808 66 17988926661173992222

> <PUBCHEM_SHAPE_MULTIPOLES>
531.94
19.45
3.01
1.46
45.65
1.55
-0.44
14.34
-1.31
-4.57
0.08
-2.12
-0.76
0.05

> <PUBCHEM_SHAPE_SELFOVERLAP>
1108.014

> <PUBCHEM_SHAPE_VOLUME>
298

> <PUBCHEM_COORDINATE_TYPE>
2
5
10

$$$$
