26743844
  -OEChem-12032416373D

 47 50  0     1  0  0  0  0  0999 V2000
   -4.5859    3.2730    1.1430 O   0  0  0  0  0  0  0  0  0  0  0  0
   -0.6745    0.4385   -2.2612 O   0  0  0  0  0  0  0  0  0  0  0  0
   -1.2893   -2.1897    0.9414 O   0  0  0  0  0  0  0  0  0  0  0  0
    1.5951   -2.1928    1.7830 O   0  0  0  0  0  0  0  0  0  0  0  0
   -2.9291    0.1895    0.4232 N   0  0  1  0  0  0  0  0  0  0  0  0
    0.0319    1.0261   -0.2186 N   0  0  0  0  0  0  0  0  0  0  0  0
    0.7229    0.3489   -2.2917 N   0  0  0  0  0  0  0  0  0  0  0  0
   -2.4735    1.0179   -0.7117 C   0  0  1  0  0  0  0  0  0  0  0  0
   -2.8356    2.4614   -0.3159 C   0  0  0  0  0  0  0  0  0  0  0  0
   -3.5306    2.3377    1.0343 C   0  0  2  0  0  0  0  0  0  0  0  0
   -4.0412    0.9093    1.0409 C   0  0  0  0  0  0  0  0  0  0  0  0
   -3.3012   -1.1642    0.0333 C   0  0  0  0  0  0  0  0  0  0  0  0
   -0.9983    0.8437   -1.0053 C   0  0  0  0  0  0  0  0  0  0  0  0
   -2.0952   -2.0482   -0.1434 C   0  0  0  0  0  0  0  0  0  0  0  0
   -1.6085   -2.7748   -1.2053 C   0  0  0  0  0  0  0  0  0  0  0  0
    1.0655    0.7103   -1.0517 C   0  0  0  0  0  0  0  0  0  0  0  0
   -0.2766   -3.0157    0.5681 C   0  0  0  0  0  0  0  0  0  0  0  0
   -0.4274   -3.4031   -0.7431 C   0  0  0  0  0  0  0  0  0  0  0  0
    2.4303    0.7677   -0.6140 C   0  0  0  0  0  0  0  0  0  0  0  0
    0.7303   -3.3157    1.5959 C   0  0  0  0  0  0  0  0  0  0  0  0
    2.7286    1.1523    0.6932 C   0  0  0  0  0  0  0  0  0  0  0  0
    3.4594    0.4372   -1.4959 C   0  0  0  0  0  0  0  0  0  0  0  0
    4.0559    1.2063    1.1188 C   0  0  0  0  0  0  0  0  0  0  0  0
    4.7867    0.4915   -1.0704 C   0  0  0  0  0  0  0  0  0  0  0  0
    5.0850    0.8757    0.2369 C   0  0  0  0  0  0  0  0  0  0  0  0
    4.3754    1.6173    2.5163 C   0  0  0  0  0  0  0  0  0  0  0  0
   -3.0441    0.7781   -1.6202 H   0  0  0  0  0  0  0  0  0  0  0  0
   -1.9665    3.1245   -0.2365 H   0  0  0  0  0  0  0  0  0  0  0  0
   -3.5094    2.9011   -1.0621 H   0  0  0  0  0  0  0  0  0  0  0  0
   -2.8192    2.5006    1.8532 H   0  0  0  0  0  0  0  0  0  0  0  0
   -4.2436    0.5647    2.0604 H   0  0  0  0  0  0  0  0  0  0  0  0
   -4.9708    0.8238    0.4628 H   0  0  0  0  0  0  0  0  0  0  0  0
   -3.9250   -1.1796   -0.8691 H   0  0  0  0  0  0  0  0  0  0  0  0
   -3.8999   -1.6263    0.8302 H   0  0  0  0  0  0  0  0  0  0  0  0
   -4.1994    4.1610    1.0555 H   0  0  0  0  0  0  0  0  0  0  0  0
   -2.0474   -2.8427   -2.1903 H   0  0  0  0  0  0  0  0  0  0  0  0
    0.2305   -4.0555   -1.2991 H   0  0  0  0  0  0  0  0  0  0  0  0
    0.2502   -3.5439    2.5529 H   0  0  0  0  0  0  0  0  0  0  0  0
    1.3437   -4.1737    1.3028 H   0  0  0  0  0  0  0  0  0  0  0  0
    1.9402    1.4144    1.3954 H   0  0  0  0  0  0  0  0  0  0  0  0
    3.2658    0.1328   -2.5214 H   0  0  0  0  0  0  0  0  0  0  0  0
    5.5884    0.2346   -1.7567 H   0  0  0  0  0  0  0  0  0  0  0  0
    6.1235    0.9153    0.5551 H   0  0  0  0  0  0  0  0  0  0  0  0
    4.3992    2.7090    2.5907 H   0  0  0  0  0  0  0  0  0  0  0  0
    3.6279    1.2312    3.2178 H   0  0  0  0  0  0  0  0  0  0  0  0
    5.3470    1.2256    2.8358 H   0  0  0  0  0  0  0  0  0  0  0  0
    2.2391   -2.4419    2.4677 H   0  0  0  0  0  0  0  0  0  0  0  0
  1 10  1  0  0  0  0
  1 35  1  0  0  0  0
  2  7  1  0  0  0  0
  2 13  1  0  0  0  0
  3 14  1  0  0  0  0
  3 17  1  0  0  0  0
  4 20  1  0  0  0  0
  4 47  1  0  0  0  0
  5  8  1  0  0  0  0
  5 11  1  0  0  0  0
  5 12  1  0  0  0  0
  6 13  2  0  0  0  0
  6 16  1  0  0  0  0
  7 16  2  0  0  0  0
  8  9  1  0  0  0  0
  8 13  1  0  0  0  0
  8 27  1  0  0  0  0
  9 10  1  0  0  0  0
  9 28  1  0  0  0  0
  9 29  1  0  0  0  0
 10 11  1  0  0  0  0
 10 30  1  0  0  0  0
 11 31  1  0  0  0  0
 11 32  1  0  0  0  0
 12 14  1  0  0  0  0
 12 33  1  0  0  0  0
 12 34  1  0  0  0  0
 14 15  2  0  0  0  0
 15 18  1  0  0  0  0
 15 36  1  0  0  0  0
 16 19  1  0  0  0  0
 17 18  2  0  0  0  0
 17 20  1  0  0  0  0
 18 37  1  0  0  0  0
 19 21  1  0  0  0  0
 19 22  2  0  0  0  0
 20 38  1  0  0  0  0
 20 39  1  0  0  0  0
 21 23  2  0  0  0  0
 21 40  1  0  0  0  0
 22 24  1  0  0  0  0
 22 41  1  0  0  0  0
 23 25  1  0  0  0  0
 23 26  1  0  0  0  0
 24 25  2  0  0  0  0
 24 42  1  0  0  0  0
 25 43  1  0  0  0  0
 26 44  1  0  0  0  0
 26 45  1  0  0  0  0
 26 46  1  0  0  0  0
M  END
> <PUBCHEM_COMPOUND_CID>
26743844

> <PUBCHEM_CONFORMER_RMSD>
1

> <PUBCHEM_CONFORMER_DIVERSEORDER>
1
77
56
60
134
122
127
138
97
92
68
87
18
94
121
90
69
29
14
58
93
89
43
70
108
38
75
16
73
139
46
102
40
19
74
110
78
100
15
23
119
85
132
34
103
131
137
86
88
117
83
17
125
80
6
8
128
59
36
113
116
98
81
95
124
35
76
120
82
109
53
30
71
57
21
99
135
61
118
136
79
25
42
115
55
5
107
32
114
49
112
9
62
10
41
111
45
133
13
31
104
3
123
22
50
126
101
91
11
72
2
20
106
47
52
64
67
44
12
27
26
37
54
129
33
96
24
63
7
66
130
39
140
51
28
4
105
84
65
48

> <PUBCHEM_MMFF94_PARTIAL_CHARGES>
33
1 -0.68
10 0.28
11 0.27
12 0.45
13 0.3
14 -0.04
15 -0.15
16 0.46
17 -0.04
18 -0.15
19 0.05
2 -0.02
20 0.46
21 -0.15
22 -0.15
23 -0.14
24 -0.15
25 -0.15
26 0.14
3 -0.28
35 0.4
36 0.15
37 0.15
4 -0.68
40 0.15
41 0.15
42 0.15
43 0.15
47 0.4
5 -0.81
6 -0.57
7 -0.41
8 0.45

> <PUBCHEM_EFFECTIVE_ROTOR_COUNT>
6

> <PUBCHEM_PHARMACOPHORE_FEATURES>
11
1 1 acceptor
1 1 donor
1 3 acceptor
1 4 acceptor
1 4 donor
1 5 cation
3 6 7 16 cation
5 2 6 7 13 16 rings
5 3 14 15 17 18 rings
5 5 8 9 10 11 rings
6 19 21 22 23 24 25 rings

> <PUBCHEM_HEAVY_ATOM_COUNT>
26

> <PUBCHEM_ATOM_DEF_STEREO_COUNT>
2

> <PUBCHEM_ATOM_UDEF_STEREO_COUNT>
0

> <PUBCHEM_BOND_DEF_STEREO_COUNT>
0

> <PUBCHEM_BOND_UDEF_STEREO_COUNT>
0

> <PUBCHEM_ISOTOPIC_ATOM_COUNT>
0

> <PUBCHEM_COMPONENT_COUNT>
1

> <PUBCHEM_CACTVS_TAUTO_COUNT>
1

> <PUBCHEM_CONFORMER_ID>
0198142400000001

> <PUBCHEM_MMFF94_ENERGY>
40.5549

> <PUBCHEM_FEATURE_SELFOVERLAP>
55.823

> <PUBCHEM_SHAPE_FINGERPRINT>
10382601 240 17895768270161452091
11552529 35 18124024895992404950
11646440 116 18122627425436012891
12156800 1 15435163605154911362
12422481 6 17750501885179816858
12633257 1 18127422352177691089
12788726 201 17976270345396966839
13004483 165 17766556129240305663
131258 38 16309946321649347411
13140716 1 16102476621067190219
133893 2 17827896461462029167
13583140 156 17273982513825468654
13994607 96 13325464772716197670
14081887 123 18197769106312365506
14178342 30 18409166631774493492
14251757 17 17917997204478112858
14468879 13 17274527841206548680
14840074 17 17095529525831864062
15420108 30 18339643313918934263
16120349 306 17824515634947054194
20554085 129 18269542867690388201
20600515 1 17323203366796457492
21033648 29 18272370845413694432
212916 134 18412827958451223001
21315764 21 16128658514112427184
23419403 2 16177578307382831791
23559900 14 18271255958535500972
23728640 28 18263371454456567291
3411729 13 18046079163837673425
5265222 85 18122937393415040334
6004065 56 17118024665868905039
602551 16 18335983181502121236
7064713 232 18334566937141759032
81228 2 18120088639521315062
9862522 239 18041266682725458461

> <PUBCHEM_SHAPE_MULTIPOLES>
496.65
8.83
3.99
1.97
6.71
2.9
-0.08
-7.31
-2.75
-4.04
-1.5
1.42
-0.08
-0.54

> <PUBCHEM_SHAPE_SELFOVERLAP>
1077.949

> <PUBCHEM_SHAPE_VOLUME>
275.1

> <PUBCHEM_COORDINATE_TYPE>
2
5
10

$$$$
