56775542
  -OEChem-12032416323D

 41 43  0     0  0  0  0  0  0999 V2000
   -1.6308    2.4413   -0.8713 F   0  0  0  0  0  0  0  0  0  0  0  0
   -0.5199   -3.7946    1.2094 O   0  0  0  0  0  0  0  0  0  0  0  0
    3.9606   -0.5179   -0.1841 O   0  0  0  0  0  0  0  0  0  0  0  0
    4.2263    2.1785    1.1207 O   0  0  0  0  0  0  0  0  0  0  0  0
   -0.8315   -0.8885    0.4029 N   0  0  0  0  0  0  0  0  0  0  0  0
    3.0903   -1.5750   -0.4210 N   0  0  0  0  0  0  0  0  0  0  0  0
   -0.1070   -2.0925   -0.0107 C   0  0  0  0  0  0  0  0  0  0  0  0
    0.4872   -2.7572    1.2257 C   0  0  0  0  0  0  0  0  0  0  0  0
   -1.0755   -3.2699   -0.0180 C   0  0  0  0  0  0  0  0  0  0  0  0
    0.7677   -1.8657   -1.2055 C   0  0  0  0  0  0  0  0  0  0  0  0
   -1.6050   -0.3803   -0.7311 C   0  0  0  0  0  0  0  0  0  0  0  0
    1.9593   -1.0033   -0.8442 C   0  0  0  0  0  0  0  0  0  0  0  0
   -2.7732    0.4406   -0.2992 C   0  0  0  0  0  0  0  0  0  0  0  0
    2.0558    0.3980   -0.8940 C   0  0  0  0  0  0  0  0  0  0  0  0
    3.3331    0.6517   -0.4694 C   0  0  0  0  0  0  0  0  0  0  0  0
   -2.7244    1.8313   -0.3931 C   0  0  0  0  0  0  0  0  0  0  0  0
   -3.9159   -0.1851    0.1993 C   0  0  0  0  0  0  0  0  0  0  0  0
    4.1140    1.8790   -0.2734 C   0  0  0  0  0  0  0  0  0  0  0  0
   -3.8182    2.5965    0.0113 C   0  0  0  0  0  0  0  0  0  0  0  0
   -5.0098    0.5801    0.6039 C   0  0  0  0  0  0  0  0  0  0  0  0
   -4.9610    1.9710    0.5099 C   0  0  0  0  0  0  0  0  0  0  0  0
    4.9779    3.3620    1.3320 C   0  0  0  0  0  0  0  0  0  0  0  0
    1.4797   -3.2042    1.1111 H   0  0  0  0  0  0  0  0  0  0  0  0
    0.4651   -2.1919    2.1635 H   0  0  0  0  0  0  0  0  0  0  0  0
   -2.1453   -3.0674    0.0942 H   0  0  0  0  0  0  0  0  0  0  0  0
   -0.9420   -3.9854   -0.8367 H   0  0  0  0  0  0  0  0  0  0  0  0
    0.2512   -1.4486   -2.0762 H   0  0  0  0  0  0  0  0  0  0  0  0
    1.1598   -2.8297   -1.5613 H   0  0  0  0  0  0  0  0  0  0  0  0
   -0.2504   -0.1433    0.7846 H   0  0  0  0  0  0  0  0  0  0  0  0
   -2.0032   -1.1850   -1.3644 H   0  0  0  0  0  0  0  0  0  0  0  0
   -0.9672    0.2218   -1.3883 H   0  0  0  0  0  0  0  0  0  0  0  0
    1.3128    1.1213   -1.1951 H   0  0  0  0  0  0  0  0  0  0  0  0
   -3.9683   -1.2677    0.2771 H   0  0  0  0  0  0  0  0  0  0  0  0
    5.1163    1.7534   -0.7001 H   0  0  0  0  0  0  0  0  0  0  0  0
    3.6270    2.7181   -0.7842 H   0  0  0  0  0  0  0  0  0  0  0  0
   -3.7799    3.6793   -0.0621 H   0  0  0  0  0  0  0  0  0  0  0  0
   -5.8996    0.0931    0.9919 H   0  0  0  0  0  0  0  0  0  0  0  0
   -5.8127    2.5668    0.8247 H   0  0  0  0  0  0  0  0  0  0  0  0
    5.9950    3.2469    0.9446 H   0  0  0  0  0  0  0  0  0  0  0  0
    4.4892    4.2188    0.8581 H   0  0  0  0  0  0  0  0  0  0  0  0
    5.0353    3.5466    2.4081 H   0  0  0  0  0  0  0  0  0  0  0  0
  1 16  1  0  0  0  0
  2  8  1  0  0  0  0
  2  9  1  0  0  0  0
  3  6  1  0  0  0  0
  3 15  1  0  0  0  0
  4 18  1  0  0  0  0
  4 22  1  0  0  0  0
  5  7  1  0  0  0  0
  5 11  1  0  0  0  0
  5 29  1  0  0  0  0
  6 12  2  0  0  0  0
  7  8  1  0  0  0  0
  7  9  1  0  0  0  0
  7 10  1  0  0  0  0
  8 23  1  0  0  0  0
  8 24  1  0  0  0  0
  9 25  1  0  0  0  0
  9 26  1  0  0  0  0
 10 12  1  0  0  0  0
 10 27  1  0  0  0  0
 10 28  1  0  0  0  0
 11 13  1  0  0  0  0
 11 30  1  0  0  0  0
 11 31  1  0  0  0  0
 12 14  1  0  0  0  0
 13 16  1  0  0  0  0
 13 17  2  0  0  0  0
 14 15  2  0  0  0  0
 14 32  1  0  0  0  0
 15 18  1  0  0  0  0
 16 19  2  0  0  0  0
 17 20  1  0  0  0  0
 17 33  1  0  0  0  0
 18 34  1  0  0  0  0
 18 35  1  0  0  0  0
 19 21  1  0  0  0  0
 19 36  1  0  0  0  0
 20 21  2  0  0  0  0
 20 37  1  0  0  0  0
 21 38  1  0  0  0  0
 22 39  1  0  0  0  0
 22 40  1  0  0  0  0
 22 41  1  0  0  0  0
M  END
> <PUBCHEM_COMPOUND_CID>
56775542

> <PUBCHEM_CONFORMER_RMSD>
0.8

> <PUBCHEM_CONFORMER_DIVERSEORDER>
1
26
166
173
30
185
50
198
202
145
155
101
27
24
13
186
94
31
191
161
59
135
105
207
96
218
67
175
40
190
84
21
140
113
97
201
215
216
188
106
108
127
211
156
176
209
195
81
85
142
60
183
46
165
178
110
80
10
214
68
217
149
34
83
11
158
82
98
55
107
136
208
66
54
17
89
64
32
226
151
212
219
223
47
199
157
197
103
51
132
38
49
179
23
162
117
126
160
129
220
123
170
29
153
22
100
148
184
5
35
168
63
227
43
88
62
204
48
116
122
192
104
130
225
196
41
37
141
25
210
57
159
189
118
133
181
222
42
150
134
12
169
79
87
121
111
99
102
206
33
203
115
193
119
131
213
73
36
76
128
78
61
18
72
19
92
205
146
91
112
58
154
124
52
138
56
2
77
167
90
4
16
177
71
14
174
28
139
228
86
224
120
15
164
221
74
163
143
7
109
39
125
3
172
180
114
20
194
187
137
53
65
200
70
44
95
182
152
147
8
45
9
69
171
6
144
75
93

> <PUBCHEM_MMFF94_PARTIAL_CHARGES>
28
1 -0.19
10 0.18
11 0.41
12 0.11
13 -0.14
14 -0.15
15 -0.04
16 0.19
17 -0.15
18 0.46
19 -0.15
2 -0.52
20 -0.15
21 -0.15
22 0.28
29 0.36
3 -0.02
32 0.15
33 0.15
36 0.15
37 0.15
38 0.15
4 -0.56
5 -0.84
6 -0.41
7 0.21
8 0.26
9 0.26

> <PUBCHEM_EFFECTIVE_ROTOR_COUNT>
7.8

> <PUBCHEM_PHARMACOPHORE_FEATURES>
8
1 2 acceptor
1 4 acceptor
1 5 cation
1 5 donor
1 6 acceptor
4 2 7 8 9 rings
5 3 6 12 14 15 rings
6 13 16 17 19 20 21 rings

> <PUBCHEM_HEAVY_ATOM_COUNT>
22

> <PUBCHEM_ATOM_DEF_STEREO_COUNT>
0

> <PUBCHEM_ATOM_UDEF_STEREO_COUNT>
0

> <PUBCHEM_BOND_DEF_STEREO_COUNT>
0

> <PUBCHEM_BOND_UDEF_STEREO_COUNT>
0

> <PUBCHEM_ISOTOPIC_ATOM_COUNT>
0

> <PUBCHEM_COMPONENT_COUNT>
1

> <PUBCHEM_CACTVS_TAUTO_COUNT>
1

> <PUBCHEM_CONFORMER_ID>
0362537600000001

> <PUBCHEM_MMFF94_ENERGY>
48.5318

> <PUBCHEM_FEATURE_SELFOVERLAP>
40.597

> <PUBCHEM_SHAPE_FINGERPRINT>
10074138 170 18044371866581339891
10692045 39 18340193095671860370
12633257 1 17823686654914977596
12769317 202 18270956834726040520
12788726 201 17465115125044002626
13955234 65 18047197354368118291
13965767 371 18040987402524307116
14178342 30 18043808904370548870
14466204 15 17975972069109697866
146900 427 18268160764520576617
14787075 74 18343302591658412509
14955137 171 17830166914176925314
15142526 21 18411703162540522585
15295992 7 18336836307645890714
15338160 23 17905884035463412892
15422964 175 9294992532203222410
21401589 2 18341612680334870809
21524375 3 18338242569816546263
22182937 141 18269279126163611472
23227448 37 18343302599900207349
23558518 356 18262241147971580662
23559900 14 17759238501806379483
2838139 119 18130500933596737212
3187 122 17615954943430705184
3246875 12 18340487880651643217
474 4 18187939330652507805
484985 159 11821478929546480636
5104073 3 18336835195423123137
56616090 13 18202563986052509405
633830 44 18342455885699785183
6442390 28 18335711524404190619
67856867 119 18190453853911315675
6913067 236 17530963575720619879
7364860 26 17830740850719720135
7808743 9 18190192363359723236
9981440 41 18200020893521107290

> <PUBCHEM_SHAPE_MULTIPOLES>
417.91
10.13
4.41
1.12
0.55
1.15
-0.16
-11.8
-2.24
1.48
-1.6
0.62
0.1
1.48

> <PUBCHEM_SHAPE_SELFOVERLAP>
885.88

> <PUBCHEM_SHAPE_VOLUME>
236.2

> <PUBCHEM_COORDINATE_TYPE>
2
5
10

$$$$
