45784321
  -OEChem-12032416243D

 31 33  0     1  0  0  0  0  0999 V2000
   -4.5518   -0.1707   -0.4066 N   0  0  1  0  0  0  0  0  0  0  0  0
    0.0943   -1.2774   -0.0207 N   0  0  0  0  0  0  0  0  0  0  0  0
   -0.4948    0.8537    0.2061 N   0  0  0  0  0  0  0  0  0  0  0  0
    6.0740   -0.5810   -0.2521 N   0  0  0  0  0  0  0  0  0  0  0  0
   -2.3715   -0.8379    0.1419 C   0  0  1  0  0  0  0  0  0  0  0  0
   -3.1378   -0.4770    1.4264 C   0  0  0  0  0  0  0  0  0  0  0  0
   -3.2117   -0.2376   -0.9934 C   0  0  0  0  0  0  0  0  0  0  0  0
   -4.3434    0.3251    0.9538 C   0  0  0  0  0  0  0  0  0  0  0  0
   -0.9307   -0.3826    0.1128 C   0  0  0  0  0  0  0  0  0  0  0  0
   -5.4521    0.6773   -1.1737 C   0  0  0  0  0  0  0  0  0  0  0  0
    1.2698   -0.5714   -0.0135 C   0  0  0  0  0  0  0  0  0  0  0  0
    0.8755    0.7560    0.1292 C   0  0  0  0  0  0  0  0  0  0  0  0
    2.6036   -0.9679   -0.1163 C   0  0  0  0  0  0  0  0  0  0  0  0
    1.8566    1.7608    0.1739 C   0  0  0  0  0  0  0  0  0  0  0  0
    3.5669    0.0452   -0.0699 C   0  0  0  0  0  0  0  0  0  0  0  0
    3.2022    1.3860    0.0727 C   0  0  0  0  0  0  0  0  0  0  0  0
    4.9509   -0.3004   -0.1705 C   0  0  0  0  0  0  0  0  0  0  0  0
   -2.3924   -1.9332    0.0450 H   0  0  0  0  0  0  0  0  0  0  0  0
   -2.5384    0.0912    2.1456 H   0  0  0  0  0  0  0  0  0  0  0  0
   -3.4691   -1.3974    1.9234 H   0  0  0  0  0  0  0  0  0  0  0  0
   -2.8464    0.7586   -1.2765 H   0  0  0  0  0  0  0  0  0  0  0  0
   -3.1907   -0.8750   -1.8840 H   0  0  0  0  0  0  0  0  0  0  0  0
   -5.2149    0.1553    1.5938 H   0  0  0  0  0  0  0  0  0  0  0  0
   -4.1037    1.3962    0.9639 H   0  0  0  0  0  0  0  0  0  0  0  0
   -5.5839    0.2769   -2.1847 H   0  0  0  0  0  0  0  0  0  0  0  0
   -5.0884    1.7078   -1.2575 H   0  0  0  0  0  0  0  0  0  0  0  0
   -6.4432    0.7006   -0.7076 H   0  0  0  0  0  0  0  0  0  0  0  0
    0.0056   -2.2810   -0.1095 H   0  0  0  0  0  0  0  0  0  0  0  0
    2.8707   -2.0140   -0.2266 H   0  0  0  0  0  0  0  0  0  0  0  0
    1.5832    2.8053    0.2845 H   0  0  0  0  0  0  0  0  0  0  0  0
    3.9625    2.1640    0.1074 H   0  0  0  0  0  0  0  0  0  0  0  0
  1  7  1  0  0  0  0
  1  8  1  0  0  0  0
  1 10  1  0  0  0  0
  2  9  1  0  0  0  0
  2 11  1  0  0  0  0
  2 28  1  0  0  0  0
  3  9  2  0  0  0  0
  3 12  1  0  0  0  0
  4 17  3  0  0  0  0
  5  6  1  0  0  0  0
  5  7  1  0  0  0  0
  5  9  1  0  0  0  0
  5 18  1  0  0  0  0
  6  8  1  0  0  0  0
  6 19  1  0  0  0  0
  6 20  1  0  0  0  0
  7 21  1  0  0  0  0
  7 22  1  0  0  0  0
  8 23  1  0  0  0  0
  8 24  1  0  0  0  0
 10 25  1  0  0  0  0
 10 26  1  0  0  0  0
 10 27  1  0  0  0  0
 11 12  2  0  0  0  0
 11 13  1  0  0  0  0
 12 14  1  0  0  0  0
 13 15  2  0  0  0  0
 13 29  1  0  0  0  0
 14 16  2  0  0  0  0
 14 30  1  0  0  0  0
 15 16  1  0  0  0  0
 15 17  1  0  0  0  0
 16 31  1  0  0  0  0
M  END
> <PUBCHEM_COMPOUND_CID>
45784321

> <PUBCHEM_CONFORMER_RMSD>
0.6

> <PUBCHEM_CONFORMER_DIVERSEORDER>
1
5
3
2
4

> <PUBCHEM_MMFF94_PARTIAL_CHARGES>
20
1 -0.81
10 0.27
11 -0.15
12 0.23
13 -0.15
14 -0.15
15 0.07
16 -0.15
17 0.48
2 0.03
28 0.27
29 0.15
3 -0.57
30 0.15
31 0.15
4 -0.56
5 0.18
7 0.27
8 0.27
9 0.01

> <PUBCHEM_EFFECTIVE_ROTOR_COUNT>
2

> <PUBCHEM_PHARMACOPHORE_FEATURES>
7
1 1 cation
1 2 donor
1 4 acceptor
3 2 3 9 cation
5 1 5 6 7 8 rings
5 2 3 9 11 12 rings
6 11 12 13 14 15 16 rings

> <PUBCHEM_HEAVY_ATOM_COUNT>
17

> <PUBCHEM_ATOM_DEF_STEREO_COUNT>
1

> <PUBCHEM_ATOM_UDEF_STEREO_COUNT>
0

> <PUBCHEM_BOND_DEF_STEREO_COUNT>
0

> <PUBCHEM_BOND_UDEF_STEREO_COUNT>
0

> <PUBCHEM_ISOTOPIC_ATOM_COUNT>
0

> <PUBCHEM_COMPONENT_COUNT>
1

> <PUBCHEM_CACTVS_TAUTO_COUNT>
2

> <PUBCHEM_CONFORMER_ID>
02BA9D0100000001

> <PUBCHEM_MMFF94_ENERGY>
27.4557

> <PUBCHEM_FEATURE_SELFOVERLAP>
35.629

> <PUBCHEM_SHAPE_FINGERPRINT>
11089746 13 17846777394992369217
11315181 36 17131832087928855258
11401426 45 18201998841471045914
11471102 20 18412825811088510956
11796584 16 17167861946459123130
12236239 1 17489869340683930463
124424 183 18335142007345111899
12500047 106 17530964709070090867
12670543 26 18335981969888730006
12670546 56 17418092113626737168
13675066 3 18187930637237825912
13760787 19 16515399681461721130
13760787 5 18341338872091054264
13862211 1 18341611491309528182
14123238 8 10159697988816657834
14251718 22 14261348063599215830
14251731 8 18040719164557681370
14911166 2 18410292519128801998
15048467 5 16515686641375380270
15099037 51 18411700993476575294
15196674 1 18339924938850280378
15242439 84 18113898268803106803
15788980 27 18259703414819845879
17834072 33 16271922744417637040
17834072 8 18409165506514115525
18186145 218 18261388987635783395
19489759 90 15626226801411868555
200 152 17846497028116967305
20279233 1 18113622291827880675
20612939 158 18411702127458997044
20645477 56 17022899039286668807
20645477 70 18411416168130377470
20681677 155 15285360630195190145
21054139 6 16916775306017619303
21267235 1 18342466949277206186
21503847 285 16371008541763718004
21709351 56 18336823182225555191
23218964 4 18187080637724954174
23402539 116 16272209669707950361
23402655 69 18342171146832908749
23557571 272 17385720249342581164
23559900 14 17458062651489347626
26918003 58 18334579052917472842
29717793 49 17346883342412685813
3268164 11 15410613658401608801
3545911 37 18260547827582409763
4072396 5 18336813222539514314
4463277 17 18410578392663759028
5104073 3 18340769368122983266
59755656 520 17458620125913659963
602551 16 16154280544810930097
633830 44 17458620185246155492
90127 26 17530968033163865353
9971528 1 18202279225953656320
9981440 41 16907473661058988312

> <PUBCHEM_SHAPE_MULTIPOLES>
329.93
11.77
1.26
0.95
0.7
0.33
0.07
-0.03
-1.95
0.7
0.04
-1.3
0.01
0.46

> <PUBCHEM_SHAPE_SELFOVERLAP>
717.746

> <PUBCHEM_SHAPE_VOLUME>
179.6

> <PUBCHEM_COORDINATE_TYPE>
2
5
10

$$$$
