75536614
  -OEChem-12032416343D

 47 49  0     1  0  0  0  0  0999 V2000
   -0.0924    0.5548   -0.8855 O   0  0  0  0  0  0  0  0  0  0  0  0
   -1.3265   -2.4213    0.7037 O   0  0  0  0  0  0  0  0  0  0  0  0
   -7.1279    0.9265    0.8142 O   0  0  0  0  0  0  0  0  0  0  0  0
    3.2233   -1.6319    1.1713 O   0  0  0  0  0  0  0  0  0  0  0  0
   -3.5222   -0.6362   -0.6633 N   0  0  0  0  0  0  0  0  0  0  0  0
    2.4937   -0.7022   -0.8253 N   0  0  0  0  0  0  0  0  0  0  0  0
   -2.1877   -0.3161   -0.1833 C   0  0  1  0  0  0  0  0  0  0  0  0
   -1.1993   -1.4588   -0.3249 C   0  0  1  0  0  0  0  0  0  0  0  0
    0.1255   -0.7124   -0.2431 C   0  0  1  0  0  0  0  0  0  0  0  0
   -4.4970    0.3496   -0.2028 C   0  0  0  0  0  0  0  0  0  0  0  0
   -1.5098    0.7710   -1.0010 C   0  0  0  0  0  0  0  0  0  0  0  0
   -4.8858    0.1000    1.2577 C   0  0  0  0  0  0  0  0  0  0  0  0
   -5.7450    0.3190   -1.0899 C   0  0  0  0  0  0  0  0  0  0  0  0
    1.2692   -1.4430   -0.9238 C   0  0  0  0  0  0  0  0  0  0  0  0
   -5.9996    1.0520    1.6797 C   0  0  0  0  0  0  0  0  0  0  0  0
   -6.8112    1.2588   -0.5376 C   0  0  0  0  0  0  0  0  0  0  0  0
    3.3862   -0.8589    0.2309 C   0  0  0  0  0  0  0  0  0  0  0  0
    4.5969    0.0016    0.2001 C   0  0  0  0  0  0  0  0  0  0  0  0
    5.2368    0.3488    1.3898 C   0  0  0  0  0  0  0  0  0  0  0  0
    5.0945    0.4609   -1.0193 C   0  0  0  0  0  0  0  0  0  0  0  0
    6.3744    1.1555    1.3604 C   0  0  0  0  0  0  0  0  0  0  0  0
    6.2321    1.2675   -1.0489 C   0  0  0  0  0  0  0  0  0  0  0  0
    6.8720    1.6149    0.1409 C   0  0  0  0  0  0  0  0  0  0  0  0
   -2.2022   -0.0279    0.8749 H   0  0  0  0  0  0  0  0  0  0  0  0
   -1.3115   -1.9601   -1.2943 H   0  0  0  0  0  0  0  0  0  0  0  0
    0.3917   -0.5072    0.8022 H   0  0  0  0  0  0  0  0  0  0  0  0
   -4.0799    1.3620   -0.2872 H   0  0  0  0  0  0  0  0  0  0  0  0
   -1.7597    0.7079   -2.0664 H   0  0  0  0  0  0  0  0  0  0  0  0
   -1.7497    1.7791   -0.6498 H   0  0  0  0  0  0  0  0  0  0  0  0
   -3.7953   -1.5657   -0.3454 H   0  0  0  0  0  0  0  0  0  0  0  0
   -4.0378    0.2256    1.9379 H   0  0  0  0  0  0  0  0  0  0  0  0
   -5.2470   -0.9311    1.3689 H   0  0  0  0  0  0  0  0  0  0  0  0
   -6.1516   -0.7008   -1.1129 H   0  0  0  0  0  0  0  0  0  0  0  0
   -5.4966    0.5987   -2.1202 H   0  0  0  0  0  0  0  0  0  0  0  0
    1.0677   -1.5611   -1.9942 H   0  0  0  0  0  0  0  0  0  0  0  0
    1.4087   -2.4367   -0.4849 H   0  0  0  0  0  0  0  0  0  0  0  0
   -5.6555    2.0930    1.6827 H   0  0  0  0  0  0  0  0  0  0  0  0
   -6.3306    0.8104    2.6948 H   0  0  0  0  0  0  0  0  0  0  0  0
   -7.7290    1.1669   -1.1270 H   0  0  0  0  0  0  0  0  0  0  0  0
   -6.4876    2.3050   -0.5900 H   0  0  0  0  0  0  0  0  0  0  0  0
   -1.2284   -1.9699    1.5590 H   0  0  0  0  0  0  0  0  0  0  0  0
    2.6548    0.0055   -1.5338 H   0  0  0  0  0  0  0  0  0  0  0  0
    4.8621    0.0044    2.3501 H   0  0  0  0  0  0  0  0  0  0  0  0
    4.6455    0.1889   -1.9698 H   0  0  0  0  0  0  0  0  0  0  0  0
    6.8724    1.4266    2.2867 H   0  0  0  0  0  0  0  0  0  0  0  0
    6.6243    1.6196   -1.9986 H   0  0  0  0  0  0  0  0  0  0  0  0
    7.7586    2.2417    0.1176 H   0  0  0  0  0  0  0  0  0  0  0  0
  1  9  1  0  0  0  0
  1 11  1  0  0  0  0
  2  8  1  0  0  0  0
  2 41  1  0  0  0  0
  3 15  1  0  0  0  0
  3 16  1  0  0  0  0
  4 17  2  0  0  0  0
  5  7  1  0  0  0  0
  5 10  1  0  0  0  0
  5 30  1  0  0  0  0
  6 14  1  0  0  0  0
  6 17  1  0  0  0  0
  6 42  1  0  0  0  0
  7  8  1  0  0  0  0
  7 11  1  0  0  0  0
  7 24  1  0  0  0  0
  8  9  1  0  0  0  0
  8 25  1  0  0  0  0
  9 14  1  0  0  0  0
  9 26  1  0  0  0  0
 10 12  1  0  0  0  0
 10 13  1  0  0  0  0
 10 27  1  0  0  0  0
 11 28  1  0  0  0  0
 11 29  1  0  0  0  0
 12 15  1  0  0  0  0
 12 31  1  0  0  0  0
 12 32  1  0  0  0  0
 13 16  1  0  0  0  0
 13 33  1  0  0  0  0
 13 34  1  0  0  0  0
 14 35  1  0  0  0  0
 14 36  1  0  0  0  0
 15 37  1  0  0  0  0
 15 38  1  0  0  0  0
 16 39  1  0  0  0  0
 16 40  1  0  0  0  0
 17 18  1  0  0  0  0
 18 19  2  0  0  0  0
 18 20  1  0  0  0  0
 19 21  1  0  0  0  0
 19 43  1  0  0  0  0
 20 22  2  0  0  0  0
 20 44  1  0  0  0  0
 21 23  2  0  0  0  0
 21 45  1  0  0  0  0
 22 23  1  0  0  0  0
 22 46  1  0  0  0  0
 23 47  1  0  0  0  0
M  END
> <PUBCHEM_COMPOUND_CID>
75536614

> <PUBCHEM_CONFORMER_RMSD>
0.8

> <PUBCHEM_CONFORMER_DIVERSEORDER>
1
114
115
118
29
42
103
128
77
70
11
129
119
85
122
23
13
116
39
78
56
113
83
26
98
75
121
107
62
112
54
41
133
55
90
71
12
20
125
138
22
4
48
131
95
19
93
120
44
102
141
6
51
87
127
132
124
37
91
111
47
110
36
94
76
135
64
82
79
31
101
69
58
134
72
25
30
17
108
126
100
106
123
96
61
105
59
74
8
137
49
117
65
16
136
34
63
10
81
86
27
45
2
140
109
21
40
46
99
80
24
35
60
50
43
97
66
3
5
15
18
104
130
67
52
32
139
53
68
14
28
88
73
9
57
84
33
38
92
89
7

> <PUBCHEM_MMFF94_PARTIAL_CHARGES>
29
1 -0.56
10 0.27
11 0.28
14 0.3
15 0.28
16 0.28
17 0.54
18 0.09
19 -0.15
2 -0.68
20 -0.15
21 -0.15
22 -0.15
23 -0.15
3 -0.56
30 0.36
4 -0.57
41 0.4
42 0.37
43 0.15
44 0.15
45 0.15
46 0.15
47 0.15
5 -0.9
6 -0.73
7 0.27
8 0.28
9 0.28

> <PUBCHEM_EFFECTIVE_ROTOR_COUNT>
8.2

> <PUBCHEM_PHARMACOPHORE_FEATURES>
11
1 1 acceptor
1 2 acceptor
1 2 donor
1 3 acceptor
1 4 acceptor
1 5 cation
1 5 donor
1 6 donor
5 1 7 8 9 11 rings
6 18 19 20 21 22 23 rings
6 3 10 12 13 15 16 rings

> <PUBCHEM_HEAVY_ATOM_COUNT>
23

> <PUBCHEM_ATOM_DEF_STEREO_COUNT>
3

> <PUBCHEM_ATOM_UDEF_STEREO_COUNT>
0

> <PUBCHEM_BOND_DEF_STEREO_COUNT>
0

> <PUBCHEM_BOND_UDEF_STEREO_COUNT>
0

> <PUBCHEM_ISOTOPIC_ATOM_COUNT>
0

> <PUBCHEM_COMPONENT_COUNT>
1

> <PUBCHEM_CACTVS_TAUTO_COUNT>
2

> <PUBCHEM_CONFORMER_ID>
048098E600000001

> <PUBCHEM_MMFF94_ENERGY>
47.024

> <PUBCHEM_FEATURE_SELFOVERLAP>
55.822

> <PUBCHEM_SHAPE_FINGERPRINT>
10 15 17458347446116958421
10554248 39 17773585019266052303
106641 1 18260554450617120427
10670039 82 14117527514696432243
10753850 27 10881400937024948806
10906281 52 18340780298461245167
117890 112 18342737420711221886
11991303 11 13326559779261761405
12166972 35 13110957652034636427
125118 31 18261954046693070973
12555020 224 10447925070739315085
12596602 18 16081085978593989644
12616971 3 16950278559672687806
12670543 26 12967132692178832691
12760667 363 8286203855218694519
12954195 1 10807669869347729091
13533116 47 18270119003119528974
13668630 136 9511457823275729357
13673619 4 7925914776843590094
13685833 64 11891332049967410860
13690498 29 15050868937171399453
13782708 43 11025798708189614237
13862211 1 8646769988864980757
14251752 14 13398632731764330021
14251764 18 18334012822184037023
14347332 77 10015598189651094390
14528608 73 16558746814911177542
14933364 13 16487257672911911521
15048467 5 18202282502522761273
15183329 4 13830139381615335802
15188451 53 13117998911439632719
15348495 7 16588033449710355625
15706992 2 17988659505570838745
15716309 27 13767929026874978197
16994733 274 18201436939932978169
1768 124 13695863727718982816
17980427 23 18188490297373302630
190975 80 16877950476772649825
2026 5 11602818017260353929
20281389 69 18342737390546282449
21150785 3 15554444111161568757
21424621 283 18201165356286723955
21637258 2 11674878909310171271
22061861 79 12175621771744180065
221357 26 14692573221789800498
2215653 11 12247679383420848172
22224240 67 18260830393576006171
23081809 10 17774714286564683871
23198884 109 16559034887374217341
29717793 49 9799690407051083498
300161 21 18411133640896962487
3004659 81 11023825085366505830
3472631 163 17774719865959192892
4058900 60 15913061880323424887
4340502 62 16588022403296921010
445580 37 16343990195748439945
465052 167 7925622332409089898
5104073 3 17678175099977444344
543368 44 17917711289001018233
559249 180 12829488147887320257
5758199 1 18343023281450850459
59682541 35 17676491687055426681
59682541 52 14117805704539982780
59755656 215 11024114239180811156
6438161 24 11671784841273004900

> <PUBCHEM_SHAPE_MULTIPOLES>
439.89
21.24
1.65
1.39
3.08
0.43
0.25
-13.74
2.52
-0.49
0.28
-0.03
-0.22
-0.4

> <PUBCHEM_SHAPE_SELFOVERLAP>
918.052

> <PUBCHEM_SHAPE_VOLUME>
248.8

> <PUBCHEM_COORDINATE_TYPE>
2
5
10

$$$$
