51138117
  -OEChem-12032416383D

 58 61  0     1  0  0  0  0  0999 V2000
   -2.3542    2.4437   -1.1654 O   0  0  0  0  0  0  0  0  0  0  0  0
   -1.0086   -0.2508   -0.5214 N   0  0  0  0  0  0  0  0  0  0  0  0
   -3.2037    1.4631    0.7674 N   0  0  0  0  0  0  0  0  0  0  0  0
    3.7720    1.2029    0.2112 N   0  0  0  0  0  0  0  0  0  0  0  0
   -5.4541    1.1302   -0.0635 C   0  0  0  0  0  0  0  0  0  0  0  0
   -6.2156    0.0615    0.6644 C   0  0  0  0  0  0  0  0  0  0  0  0
   -6.9360    1.2645    0.1298 C   0  0  0  0  0  0  0  0  0  0  0  0
   -4.5356    2.0200    0.7029 C   0  0  0  0  0  0  0  0  0  0  0  0
   -0.3645   -1.3526    0.2061 C   0  0  2  0  0  0  0  0  0  0  0  0
   -0.9313    1.0430    0.1416 C   0  0  1  0  0  0  0  0  0  0  0  0
    0.2237    1.8829   -0.4001 C   0  0  0  0  0  0  0  0  0  0  0  0
    1.1517   -1.2358    0.3923 C   0  0  0  0  0  0  0  0  0  0  0  0
    1.9080   -0.0389    0.2323 C   0  0  0  0  0  0  0  0  0  0  0  0
    1.5727    1.3185   -0.1036 C   0  0  0  0  0  0  0  0  0  0  0  0
   -0.7679   -2.6196   -0.5695 C   0  0  0  0  0  0  0  0  0  0  0  0
   -2.2263    1.7257   -0.1772 C   0  0  0  0  0  0  0  0  0  0  0  0
    3.2912   -0.0636    0.4459 C   0  0  0  0  0  0  0  0  0  0  0  0
   -2.2094   -3.0574   -0.2922 C   0  0  0  0  0  0  0  0  0  0  0  0
    2.7479    2.0424   -0.1137 C   0  0  0  0  0  0  0  0  0  0  0  0
    1.8711   -2.3759    0.8327 C   0  0  0  0  0  0  0  0  0  0  0  0
    3.9887   -1.2085    0.8344 C   0  0  0  0  0  0  0  0  0  0  0  0
    3.2495   -2.3666    1.0377 C   0  0  0  0  0  0  0  0  0  0  0  0
   -3.2337   -1.9879   -0.6739 C   0  0  0  0  0  0  0  0  0  0  0  0
   -2.5007   -4.3496   -1.0587 C   0  0  0  0  0  0  0  0  0  0  0  0
    5.1575    1.6098    0.3099 C   0  0  0  0  0  0  0  0  0  0  0  0
    5.9543    1.2304   -0.9032 C   0  0  0  0  0  0  0  0  0  0  0  0
    7.0532    0.4684   -0.8662 C   0  0  0  0  0  0  0  0  0  0  0  0
   -5.1050    0.9204   -1.0675 H   0  0  0  0  0  0  0  0  0  0  0  0
   -6.3673   -0.8833    0.1569 H   0  0  0  0  0  0  0  0  0  0  0  0
   -6.1010   -0.0219    1.7381 H   0  0  0  0  0  0  0  0  0  0  0  0
   -7.3037    1.9904    0.8445 H   0  0  0  0  0  0  0  0  0  0  0  0
   -7.5721    1.1271   -0.7361 H   0  0  0  0  0  0  0  0  0  0  0  0
   -4.8734    2.1695    1.7341 H   0  0  0  0  0  0  0  0  0  0  0  0
   -4.4881    3.0011    0.2181 H   0  0  0  0  0  0  0  0  0  0  0  0
   -0.7926   -1.4118    1.2163 H   0  0  0  0  0  0  0  0  0  0  0  0
   -0.8420    0.9414    1.2316 H   0  0  0  0  0  0  0  0  0  0  0  0
    0.1416    2.0102   -1.4887 H   0  0  0  0  0  0  0  0  0  0  0  0
    0.1610    2.8934    0.0272 H   0  0  0  0  0  0  0  0  0  0  0  0
   -0.6628   -0.1955   -1.4788 H   0  0  0  0  0  0  0  0  0  0  0  0
   -0.1332   -3.4738   -0.3170 H   0  0  0  0  0  0  0  0  0  0  0  0
   -0.6120   -2.4754   -1.6490 H   0  0  0  0  0  0  0  0  0  0  0  0
   -2.9987    0.8301    1.5350 H   0  0  0  0  0  0  0  0  0  0  0  0
   -2.3201   -3.2745    0.7779 H   0  0  0  0  0  0  0  0  0  0  0  0
    2.9253    3.0888   -0.3255 H   0  0  0  0  0  0  0  0  0  0  0  0
    1.3516   -3.3037    1.0605 H   0  0  0  0  0  0  0  0  0  0  0  0
    5.0601   -1.2049    1.0008 H   0  0  0  0  0  0  0  0  0  0  0  0
    3.7496   -3.2720    1.3712 H   0  0  0  0  0  0  0  0  0  0  0  0
   -3.2620   -1.1845    0.0634 H   0  0  0  0  0  0  0  0  0  0  0  0
   -3.0530   -1.5784   -1.6729 H   0  0  0  0  0  0  0  0  0  0  0  0
   -4.2434   -2.4157   -0.6805 H   0  0  0  0  0  0  0  0  0  0  0  0
   -2.4223   -4.1971   -2.1406 H   0  0  0  0  0  0  0  0  0  0  0  0
   -3.5110   -4.7124   -0.8410 H   0  0  0  0  0  0  0  0  0  0  0  0
   -1.7983   -5.1405   -0.7750 H   0  0  0  0  0  0  0  0  0  0  0  0
    5.5688    1.1818    1.2313 H   0  0  0  0  0  0  0  0  0  0  0  0
    5.1815    2.6995    0.4294 H   0  0  0  0  0  0  0  0  0  0  0  0
    5.6209    1.6148   -1.8640 H   0  0  0  0  0  0  0  0  0  0  0  0
    7.5908    0.2350   -1.7786 H   0  0  0  0  0  0  0  0  0  0  0  0
    7.4332    0.0664    0.0664 H   0  0  0  0  0  0  0  0  0  0  0  0
  1 16  2  0  0  0  0
  2  9  1  0  0  0  0
  2 10  1  0  0  0  0
  2 39  1  0  0  0  0
  3  8  1  0  0  0  0
  3 16  1  0  0  0  0
  3 42  1  0  0  0  0
  4 17  1  0  0  0  0
  4 19  1  0  0  0  0
  4 25  1  0  0  0  0
  5  6  1  0  0  0  0
  5  7  1  0  0  0  0
  5  8  1  0  0  0  0
  5 28  1  0  0  0  0
  6  7  1  0  0  0  0
  6 29  1  0  0  0  0
  6 30  1  0  0  0  0
  7 31  1  0  0  0  0
  7 32  1  0  0  0  0
  8 33  1  0  0  0  0
  8 34  1  0  0  0  0
  9 12  1  0  0  0  0
  9 15  1  0  0  0  0
  9 35  1  0  0  0  0
 10 11  1  0  0  0  0
 10 16  1  0  0  0  0
 10 36  1  0  0  0  0
 11 14  1  0  0  0  0
 11 37  1  0  0  0  0
 11 38  1  0  0  0  0
 12 13  2  0  0  0  0
 12 20  1  0  0  0  0
 13 14  1  0  0  0  0
 13 17  1  0  0  0  0
 14 19  2  0  0  0  0
 15 18  1  0  0  0  0
 15 40  1  0  0  0  0
 15 41  1  0  0  0  0
 17 21  2  0  0  0  0
 18 23  1  0  0  0  0
 18 24  1  0  0  0  0
 18 43  1  0  0  0  0
 19 44  1  0  0  0  0
 20 22  2  0  0  0  0
 20 45  1  0  0  0  0
 21 22  1  0  0  0  0
 21 46  1  0  0  0  0
 22 47  1  0  0  0  0
 23 48  1  0  0  0  0
 23 49  1  0  0  0  0
 23 50  1  0  0  0  0
 24 51  1  0  0  0  0
 24 52  1  0  0  0  0
 24 53  1  0  0  0  0
 25 26  1  0  0  0  0
 25 54  1  0  0  0  0
 25 55  1  0  0  0  0
 26 27  2  0  0  0  0
 26 56  1  0  0  0  0
 27 57  1  0  0  0  0
 27 58  1  0  0  0  0
M  END
> <PUBCHEM_COMPOUND_CID>
51138117

> <PUBCHEM_CONFORMER_RMSD>
1

> <PUBCHEM_CONFORMER_DIVERSEORDER>
1
30
11
8
21
4
16
26
33
5
7
29
22
23
12
13
32
27
20
18
19
6
3
10
15
17
9
31
2
25
28
14
34
24

> <PUBCHEM_MMFF94_PARTIAL_CHARGES>
36
1 -0.57
10 0.33
11 0.18
12 -0.14
14 -0.18
16 0.57
17 -0.15
19 -0.3
2 -0.9
20 -0.15
21 -0.15
22 -0.15
25 0.39
26 -0.29
27 -0.3
28 0.1
29 0.1
3 -0.73
30 0.1
31 0.1
32 0.1
39 0.36
4 0.05
42 0.37
44 0.15
45 0.15
46 0.15
47 0.15
5 -0.19
56 0.15
57 0.15
58 0.15
6 -0.2
7 -0.2
8 0.4
9 0.41

> <PUBCHEM_EFFECTIVE_ROTOR_COUNT>
9.4

> <PUBCHEM_PHARMACOPHORE_FEATURES>
10
1 1 acceptor
1 2 cation
1 2 donor
1 27 hydrophobe
1 3 donor
1 4 cation
3 18 23 24 hydrophobe
5 4 13 14 17 19 rings
6 12 13 17 20 21 22 rings
7 2 9 10 11 12 13 14 rings

> <PUBCHEM_HEAVY_ATOM_COUNT>
27

> <PUBCHEM_ATOM_DEF_STEREO_COUNT>
2

> <PUBCHEM_ATOM_UDEF_STEREO_COUNT>
0

> <PUBCHEM_BOND_DEF_STEREO_COUNT>
0

> <PUBCHEM_BOND_UDEF_STEREO_COUNT>
0

> <PUBCHEM_ISOTOPIC_ATOM_COUNT>
0

> <PUBCHEM_COMPONENT_COUNT>
1

> <PUBCHEM_CACTVS_TAUTO_COUNT>
2

> <PUBCHEM_CONFORMER_ID>
030C4E4500000001

> <PUBCHEM_MMFF94_ENERGY>
57.237

> <PUBCHEM_FEATURE_SELFOVERLAP>
50.876

> <PUBCHEM_SHAPE_FINGERPRINT>
10050765 1 18125159587719102848
10165383 225 18409171004521251192
1100329 8 18340487893241704553
11578080 2 17630869698217773818
12788726 201 18130495444681456071
12838862 33 18337375106708374425
13140716 1 18337659855008899106
13540713 5 18262222396766611874
14790565 3 18340487760092112241
14840074 17 18260550009325771053
14866123 147 18340206405306102439
15131766 46 15504373554608440204
15297060 5 18060426824333938611
15927050 60 18413388735135699879
19319366 153 17967816007634785162
19591789 44 18051128086466617327
20028762 73 18129653090089260175
21033648 29 17416950894310106320
21197605 99 18409173221135768123
21236236 1 18341050829871724436
21267235 1 18264770961371153250
21421861 104 18041826342860726738
23558518 356 18049443948016730621
23559900 14 18201432649160740464
25147074 1 18261381265912709658
283562 15 18121209050924371858
335352 9 18411419531295134972
338550 245 18261396688728488021
350125 39 18409446985822742576
4073 2 17894640214909079625
5104073 3 18263067946376646274
5171179 24 17627224903282350281
5486654 2 18343021078069609953
59755656 215 18271815613895422268
59755656 520 18412544318805395981
6438718 38 17917699245543845519

> <PUBCHEM_SHAPE_MULTIPOLES>
534.83
14.31
3.95
0.97
1.98
3.9
-0.03
-7.97
-0.31
2.8
-0.77
-0.23
0.23
-1.8

> <PUBCHEM_SHAPE_SELFOVERLAP>
1130.85

> <PUBCHEM_SHAPE_VOLUME>
301

> <PUBCHEM_COORDINATE_TYPE>
2
5
10

$$$$
