51137280
  -OEChem-12032416223D

 36 39  0     1  0  0  0  0  0999 V2000
   -4.5503   -1.4041   -1.4908 S   0  0  0  0  0  0  0  0  0  0  0  0
    1.9145    0.2070    0.6921 O   0  0  0  0  0  0  0  0  0  0  0  0
    5.1348   -0.5462   -0.9273 O   0  0  0  0  0  0  0  0  0  0  0  0
   -2.6725    1.3340    0.3728 N   0  0  1  0  0  0  0  0  0  0  0  0
    1.2764    1.0924   -1.2606 N   0  0  0  0  0  0  0  0  0  0  0  0
    2.5694    0.6253   -1.4056 N   0  0  0  0  0  0  0  0  0  0  0  0
   -0.3615    1.1092    0.7019 C   0  0  1  0  0  0  0  0  0  0  0  0
   -0.7498    2.5962    0.7763 C   0  0  0  0  0  0  0  0  0  0  0  0
   -1.5709    0.4240    0.0517 C   0  0  0  0  0  0  0  0  0  0  0  0
   -2.1332    2.6744    0.1436 C   0  0  0  0  0  0  0  0  0  0  0  0
   -3.8607    1.0708   -0.4255 C   0  0  0  0  0  0  0  0  0  0  0  0
    0.9350    0.8269   -0.0214 C   0  0  0  0  0  0  0  0  0  0  0  0
   -4.4058   -0.3112   -0.1807 C   0  0  0  0  0  0  0  0  0  0  0  0
    2.9007    0.1172   -0.2416 C   0  0  0  0  0  0  0  0  0  0  0  0
   -4.8329   -0.8666    1.0054 C   0  0  0  0  0  0  0  0  0  0  0  0
   -5.2845   -2.2073    0.8363 C   0  0  0  0  0  0  0  0  0  0  0  0
    4.1636   -0.4683    0.0201 C   0  0  0  0  0  0  0  0  0  0  0  0
   -5.1855   -2.6254   -0.4725 C   0  0  0  0  0  0  0  0  0  0  0  0
    4.5961   -1.0224    1.2025 C   0  0  0  0  0  0  0  0  0  0  0  0
    5.9181   -1.4694    0.9666 C   0  0  0  0  0  0  0  0  0  0  0  0
    6.1991   -1.1567   -0.3432 C   0  0  0  0  0  0  0  0  0  0  0  0
   -0.2622    0.7407    1.7329 H   0  0  0  0  0  0  0  0  0  0  0  0
   -0.7983    2.9075    1.8272 H   0  0  0  0  0  0  0  0  0  0  0  0
   -0.0404    3.2565    0.2663 H   0  0  0  0  0  0  0  0  0  0  0  0
   -1.4314    0.3241   -1.0332 H   0  0  0  0  0  0  0  0  0  0  0  0
   -1.7131   -0.5769    0.4739 H   0  0  0  0  0  0  0  0  0  0  0  0
   -2.0387    2.8986   -0.9267 H   0  0  0  0  0  0  0  0  0  0  0  0
   -2.7454    3.4518    0.6114 H   0  0  0  0  0  0  0  0  0  0  0  0
   -4.6462    1.7867   -0.1492 H   0  0  0  0  0  0  0  0  0  0  0  0
   -3.6606    1.2281   -1.4940 H   0  0  0  0  0  0  0  0  0  0  0  0
   -4.8250   -0.3405    1.9516 H   0  0  0  0  0  0  0  0  0  0  0  0
   -5.6629   -2.8332    1.6340 H   0  0  0  0  0  0  0  0  0  0  0  0
   -5.4559   -3.5896   -0.8793 H   0  0  0  0  0  0  0  0  0  0  0  0
    4.0380   -1.1000    2.1253 H   0  0  0  0  0  0  0  0  0  0  0  0
    6.5830   -1.9583    1.6637 H   0  0  0  0  0  0  0  0  0  0  0  0
    7.0639   -1.2943   -0.9757 H   0  0  0  0  0  0  0  0  0  0  0  0
  1 13  1  0  0  0  0
  1 18  1  0  0  0  0
  2 12  1  0  0  0  0
  2 14  1  0  0  0  0
  3 17  1  0  0  0  0
  3 21  1  0  0  0  0
  4  9  1  0  0  0  0
  4 10  1  0  0  0  0
  4 11  1  0  0  0  0
  5  6  1  0  0  0  0
  5 12  2  0  0  0  0
  6 14  2  0  0  0  0
  7  8  1  0  0  0  0
  7  9  1  0  0  0  0
  7 12  1  0  0  0  0
  7 22  1  0  0  0  0
  8 10  1  0  0  0  0
  8 23  1  0  0  0  0
  8 24  1  0  0  0  0
  9 25  1  0  0  0  0
  9 26  1  0  0  0  0
 10 27  1  0  0  0  0
 10 28  1  0  0  0  0
 11 13  1  0  0  0  0
 11 29  1  0  0  0  0
 11 30  1  0  0  0  0
 13 15  2  0  0  0  0
 14 17  1  0  0  0  0
 15 16  1  0  0  0  0
 15 31  1  0  0  0  0
 16 18  2  0  0  0  0
 16 32  1  0  0  0  0
 17 19  2  0  0  0  0
 18 33  1  0  0  0  0
 19 20  1  0  0  0  0
 19 34  1  0  0  0  0
 20 21  2  0  0  0  0
 20 35  1  0  0  0  0
 21 36  1  0  0  0  0
M  END
> <PUBCHEM_COMPOUND_CID>
51137280

> <PUBCHEM_CONFORMER_RMSD>
0.8

> <PUBCHEM_CONFORMER_DIVERSEORDER>
2
56
153
165
20
122
46
91
127
140
177
100
94
7
50
115
159
113
89
156
167
106
93
23
26
67
62
120
132
104
53
112
124
172
86
71
170
95
54
137
171
31
143
117
27
66
59
45
107
160
148
155
105
173
126
151
174
6
75
29
14
90
146
88
51
180
111
3
39
163
73
101
77
92
4
162
13
142
47
97
166
1
99
145
128
175
139
25
176
81
147
109
76
36
102
141
57
63
130
161
85
58
61
48
136
15
84
131
34
69
64
33
164
22
168
178
17
24
119
144
83
108
158
28
103
169
157
116
12
96
19
80
82
55
150
41
5
135
11
18
42
87
72
114
60
10
154
8
152
74
16
49
98
179
52
40
9
121
78
44
68
70
133
110
35
43
38
125
138
134
149
123
79
37
118
65
21
32
129
30

> <PUBCHEM_MMFF94_PARTIAL_CHARGES>
26
1 -0.08
10 0.27
11 0.45
12 0.3
13 -0.14
14 0.48
15 -0.15
16 -0.15
17 0.14
18 -0.11
19 -0.15
2 -0.28
20 -0.15
21 -0.01
3 -0.28
31 0.15
32 0.15
33 0.15
34 0.15
35 0.15
36 0.15
4 -0.81
5 -0.34
6 -0.34
7 0.18
9 0.27

> <PUBCHEM_EFFECTIVE_ROTOR_COUNT>
5

> <PUBCHEM_PHARMACOPHORE_FEATURES>
6
1 3 acceptor
1 4 cation
5 1 13 15 16 18 rings
5 2 5 6 12 14 rings
5 3 17 19 20 21 rings
5 4 7 8 9 10 rings

> <PUBCHEM_HEAVY_ATOM_COUNT>
21

> <PUBCHEM_ATOM_DEF_STEREO_COUNT>
1

> <PUBCHEM_ATOM_UDEF_STEREO_COUNT>
0

> <PUBCHEM_BOND_DEF_STEREO_COUNT>
0

> <PUBCHEM_BOND_UDEF_STEREO_COUNT>
0

> <PUBCHEM_ISOTOPIC_ATOM_COUNT>
0

> <PUBCHEM_COMPONENT_COUNT>
1

> <PUBCHEM_CACTVS_TAUTO_COUNT>
1

> <PUBCHEM_CONFORMER_ID>
030C4B0000000002

> <PUBCHEM_MMFF94_ENERGY>
21.0097

> <PUBCHEM_FEATURE_SELFOVERLAP>
30.448

> <PUBCHEM_SHAPE_FINGERPRINT>
11089746 13 10737290190277774694
11545043 162 18130499760548296456
11796584 16 18338795602658306130
11809386 21 18261106349234586707
12166972 35 17894354409797965988
12236239 1 18187367597696791676
12390115 104 8502374468622004293
12596602 18 18408318870356366584
12616971 3 17894926100310826461
12633257 1 16128650894560726165
12760667 363 18412824703419595191
12892183 10 14117252671660656157
13103583 49 17917444154751421171
13288520 33 18410294696793297993
13740256 8 18342458166306495321
13911882 115 17775291513015868494
14123255 352 8935008066272862211
14211702 104 18339926996435832798
14251740 79 17603588556070704027
14251751 18 18413669123326733827
14251764 30 17823991228505439779
14341114 328 12607401087673197726
14347329 18 10809333451688226111
14461889 52 18339353163498721898
14950920 106 15841263848381481779
15183329 4 16081080467960772179
15188451 53 18338506474445623410
17138139 8 18040989691515601522
17349148 13 18187652392255902298
17780758 139 17632582647804095403
17857418 61 18334856108415222098
18222031 100 17894628133102596272
18785283 64 16701160041019091496
18927931 339 18272652329375017181
193927 3 18411986866246453071
200 152 18041001725955603985
20028762 73 18342738537635639678
20281389 69 9295285041093179134
20621476 91 18059280041805329826
21054139 6 18186519878664257834
21150785 3 17968387809921426790
21401589 2 9799418862571251845
21728266 224 18337384950814984904
21756936 100 11023812977505766380
220451 1 18188216390392385976
2303208 19 17346604028537455886
23402539 116 18260549991644793669
23522609 53 18121254005989181197
23559900 14 18409720781345849777
25122255 55 18270971145857868342
270888 7 9078852774710370379
2838139 119 7853577880945097151
3004659 81 18040994068281908435
312425 54 16415209965957732399
316301 35 18197495345160631355
351380 3 18409166623285110387
4015057 19 16515982427215296036
439807 62 18040720320526922123
445580 182 17274556364585378827
463206 1 18337392763741077739
5104073 3 18202847664353251049
531348 171 17242160258825204189
5486654 36 18340215171903676633
559249 180 18411135819473633165
5718773 13 18199179771711424583
59682541 52 14924486598880679930
6431902 208 18409445890759705931
7062679 6 9799689311581267418
7495541 125 17989201560461015640
76465 3 18411980303958502201
7970288 3 18340203115556735359

> <PUBCHEM_SHAPE_MULTIPOLES>
409.34
15.62
2.59
1.21
10.33
0.52
-0.16
-13.73
0.52
-3.32
0.33
-0.01
-0.25
-0.67

> <PUBCHEM_SHAPE_SELFOVERLAP>
880.663

> <PUBCHEM_SHAPE_VOLUME>
229.6

> <PUBCHEM_COORDINATE_TYPE>
2
5
10

$$$$
