75536101
  -OEChem-12032416413D

 51 54  0     1  0  0  0  0  0999 V2000
    0.8189   -3.8392    0.9272 O   0  0  0  0  0  0  0  0  0  0  0  0
    3.4908   -3.2201    0.9903 O   0  0  0  0  0  0  0  0  0  0  0  0
    4.4857    3.8954    0.3110 O   0  0  0  0  0  0  0  0  0  0  0  0
   -0.0867   -1.1908   -0.3599 N   0  0  0  0  0  0  0  0  0  0  0  0
   -4.6549   -1.3584    0.0980 N   0  0  0  0  0  0  0  0  0  0  0  0
    1.2627   -1.6578   -0.0625 C   0  0  2  0  0  0  0  0  0  0  0  0
    2.2972   -1.1385   -1.0870 C   0  0  2  0  0  0  0  0  0  0  0  0
    1.3781   -3.1764   -0.1907 C   0  0  1  0  0  0  0  0  0  0  0  0
    3.3486   -2.2726   -1.2250 C   0  0  0  0  0  0  0  0  0  0  0  0
    2.8859   -3.3905   -0.2885 C   0  0  1  0  0  0  0  0  0  0  0  0
    2.8823    0.2068   -0.7140 C   0  0  0  0  0  0  0  0  0  0  0  0
   -0.9404   -1.2875    0.8157 C   0  0  0  0  0  0  0  0  0  0  0  0
    3.5607    0.3606    0.4950 C   0  0  0  0  0  0  0  0  0  0  0  0
    2.7427    1.2925   -1.5785 C   0  0  0  0  0  0  0  0  0  0  0  0
   -2.3422   -0.8180    0.5308 C   0  0  0  0  0  0  0  0  0  0  0  0
    4.0999    1.6001    0.8393 C   0  0  0  0  0  0  0  0  0  0  0  0
    3.2819    2.5320   -1.2343 C   0  0  0  0  0  0  0  0  0  0  0  0
    3.9605    2.6858   -0.0253 C   0  0  0  0  0  0  0  0  0  0  0  0
   -2.6423    0.5331    0.4335 C   0  0  0  0  0  0  0  0  0  0  0  0
   -3.3760   -1.7154    0.3565 C   0  0  0  0  0  0  0  0  0  0  0  0
   -3.9548    0.9463    0.1673 C   0  0  0  0  0  0  0  0  0  0  0  0
   -4.9432   -0.0465    0.0041 C   0  0  0  0  0  0  0  0  0  0  0  0
   -4.2911    2.3066    0.0628 C   0  0  0  0  0  0  0  0  0  0  0  0
   -6.2466    0.3644   -0.2607 C   0  0  0  0  0  0  0  0  0  0  0  0
    5.1670    3.9823    1.5618 C   0  0  0  0  0  0  0  0  0  0  0  0
   -5.6028    2.6893   -0.2025 C   0  0  0  0  0  0  0  0  0  0  0  0
   -6.5815    1.7167   -0.3647 C   0  0  0  0  0  0  0  0  0  0  0  0
    1.5375   -1.3508    0.9553 H   0  0  0  0  0  0  0  0  0  0  0  0
    1.8120   -1.0460   -2.0702 H   0  0  0  0  0  0  0  0  0  0  0  0
    0.8819   -3.5338   -1.1024 H   0  0  0  0  0  0  0  0  0  0  0  0
    3.3306   -2.6366   -2.2599 H   0  0  0  0  0  0  0  0  0  0  0  0
    4.3699   -1.9427   -1.0075 H   0  0  0  0  0  0  0  0  0  0  0  0
    3.1416   -4.3900   -0.6523 H   0  0  0  0  0  0  0  0  0  0  0  0
   -0.0437   -0.2146   -0.6538 H   0  0  0  0  0  0  0  0  0  0  0  0
   -0.5395   -0.6826    1.6400 H   0  0  0  0  0  0  0  0  0  0  0  0
   -0.9995   -2.3150    1.1871 H   0  0  0  0  0  0  0  0  0  0  0  0
    1.0166   -4.7866    0.8328 H   0  0  0  0  0  0  0  0  0  0  0  0
    4.4514   -3.3143    0.8728 H   0  0  0  0  0  0  0  0  0  0  0  0
    3.6884   -0.4721    1.1803 H   0  0  0  0  0  0  0  0  0  0  0  0
    2.2163    1.1890   -2.5235 H   0  0  0  0  0  0  0  0  0  0  0  0
    4.6157    1.6493    1.7922 H   0  0  0  0  0  0  0  0  0  0  0  0
    3.1698    3.3742   -1.9116 H   0  0  0  0  0  0  0  0  0  0  0  0
   -1.8539    1.2717    0.5658 H   0  0  0  0  0  0  0  0  0  0  0  0
   -3.2130   -2.7871    0.4169 H   0  0  0  0  0  0  0  0  0  0  0  0
   -3.5325    3.0761    0.1878 H   0  0  0  0  0  0  0  0  0  0  0  0
   -7.0318   -0.3780   -0.3917 H   0  0  0  0  0  0  0  0  0  0  0  0
    5.5195    5.0136    1.6668 H   0  0  0  0  0  0  0  0  0  0  0  0
    6.0525    3.3380    1.5832 H   0  0  0  0  0  0  0  0  0  0  0  0
    4.4918    3.7881    2.4021 H   0  0  0  0  0  0  0  0  0  0  0  0
   -5.8590    3.7413   -0.2825 H   0  0  0  0  0  0  0  0  0  0  0  0
   -7.6075    2.0063   -0.5721 H   0  0  0  0  0  0  0  0  0  0  0  0
  1  8  1  0  0  0  0
  1 37  1  0  0  0  0
  2 10  1  0  0  0  0
  2 38  1  0  0  0  0
  3 18  1  0  0  0  0
  3 25  1  0  0  0  0
  4  6  1  0  0  0  0
  4 12  1  0  0  0  0
  4 34  1  0  0  0  0
  5 20  2  0  0  0  0
  5 22  1  0  0  0  0
  6  7  1  0  0  0  0
  6  8  1  0  0  0  0
  6 28  1  0  0  0  0
  7  9  1  0  0  0  0
  7 11  1  0  0  0  0
  7 29  1  0  0  0  0
  8 10  1  0  0  0  0
  8 30  1  0  0  0  0
  9 10  1  0  0  0  0
  9 31  1  0  0  0  0
  9 32  1  0  0  0  0
 10 33  1  0  0  0  0
 11 13  2  0  0  0  0
 11 14  1  0  0  0  0
 12 15  1  0  0  0  0
 12 35  1  0  0  0  0
 12 36  1  0  0  0  0
 13 16  1  0  0  0  0
 13 39  1  0  0  0  0
 14 17  2  0  0  0  0
 14 40  1  0  0  0  0
 15 19  2  0  0  0  0
 15 20  1  0  0  0  0
 16 18  2  0  0  0  0
 16 41  1  0  0  0  0
 17 18  1  0  0  0  0
 17 42  1  0  0  0  0
 19 21  1  0  0  0  0
 19 43  1  0  0  0  0
 20 44  1  0  0  0  0
 21 22  1  0  0  0  0
 21 23  2  0  0  0  0
 22 24  2  0  0  0  0
 23 26  1  0  0  0  0
 23 45  1  0  0  0  0
 24 27  1  0  0  0  0
 24 46  1  0  0  0  0
 25 47  1  0  0  0  0
 25 48  1  0  0  0  0
 25 49  1  0  0  0  0
 26 27  2  0  0  0  0
 26 50  1  0  0  0  0
 27 51  1  0  0  0  0
M  END
> <PUBCHEM_COMPOUND_CID>
75536101

> <PUBCHEM_CONFORMER_RMSD>
0.8

> <PUBCHEM_CONFORMER_DIVERSEORDER>
1
3
39
28
70
68
34
88
8
85
7
89
79
46
25
43
62
47
15
91
53
81
21
72
73
59
61
29
42
22
64
48
51
67
12
66
20
74
76
87
84
56
2
41
16
14
38
52
60
18
78
40
82
83
37
30
31
55
90
24
23
65
32
77
75
4
5
6
49
33
27
71
36
17
11
58
86
50
26
54
69
35
80
44
9
45
13
57
19
10
63

> <PUBCHEM_MMFF94_PARTIAL_CHARGES>
38
1 -0.68
10 0.28
11 -0.14
12 0.41
13 -0.15
14 -0.15
15 -0.14
16 -0.15
17 -0.15
18 0.08
19 -0.15
2 -0.68
20 0.16
22 0.31
23 -0.15
24 -0.15
25 0.28
26 -0.15
27 -0.15
3 -0.36
34 0.36
37 0.4
38 0.4
39 0.15
4 -0.9
40 0.15
41 0.15
42 0.15
43 0.15
44 0.15
45 0.15
46 0.15
5 -0.62
50 0.15
51 0.15
6 0.27
7 0.14
8 0.28

> <PUBCHEM_EFFECTIVE_ROTOR_COUNT>
6

> <PUBCHEM_PHARMACOPHORE_FEATURES>
12
1 1 acceptor
1 1 donor
1 2 acceptor
1 2 donor
1 3 acceptor
1 4 cation
1 4 donor
1 5 acceptor
5 6 7 8 9 10 rings
6 11 13 14 16 17 18 rings
6 21 22 23 24 26 27 rings
6 5 15 19 20 21 22 rings

> <PUBCHEM_HEAVY_ATOM_COUNT>
27

> <PUBCHEM_ATOM_DEF_STEREO_COUNT>
4

> <PUBCHEM_ATOM_UDEF_STEREO_COUNT>
0

> <PUBCHEM_BOND_DEF_STEREO_COUNT>
0

> <PUBCHEM_BOND_UDEF_STEREO_COUNT>
0

> <PUBCHEM_ISOTOPIC_ATOM_COUNT>
0

> <PUBCHEM_COMPONENT_COUNT>
1

> <PUBCHEM_CACTVS_TAUTO_COUNT>
1

> <PUBCHEM_CONFORMER_ID>
048096E500000001

> <PUBCHEM_MMFF94_ENERGY>
91.2137

> <PUBCHEM_FEATURE_SELFOVERLAP>
60.939

> <PUBCHEM_SHAPE_FINGERPRINT>
10675989 125 18343867710091323496
11135609 127 18341320116422598861
12107183 9 18192416675978819672
12166972 35 18127690422466564355
12549972 3 17677918788686951738
12633257 1 16371284553610495484
12769317 202 18201156641376483504
13878862 14 18188195499798137469
13965767 371 18042392677517031892
14251764 38 18340773637310230465
14468879 13 18188783862751217643
14848178 96 18409175398019145677
14849402 71 18335703815306867090
16120349 189 18194679500161352100
16988056 13 18267872692410626852
17844677 252 18337681798207745547
17868525 174 18118119169588826730
18681886 176 18198056971895509866
19053607 189 18261395593349297965
20238998 120 18124597475674389118
20715895 44 18409163290464250929
21133410 127 18040156223105753004
21304303 282 17628338683319036886
21315764 268 18262515867507482213
21388113 180 18339645658328168680
21403212 168 18343291579858378442
21859007 373 17242437327661614981
22393880 68 18341345447464588399
23559900 14 18339643317765989195
245318 6 17316498484830037709
3004659 81 18269838610337186439
3298306 158 18272086162111646697
345986 75 16665135362906004138
34797466 226 17988649575796055573
376196 1 18340209686655958778
44317340 157 18339929221528688981
469060 322 17545062840156038123
474 4 18261117378294202415
495365 180 18335143063749434566
508180 173 17975712592459676754
5104073 3 18261963955688629259
513532 50 18201165369081962060
5219985 13 18126001809367720956
57124632 79 18412258454635859264
57307002 19 18126270076698193321
6201320 77 15721885344590991040
67856867 119 18410008810679705923
7808743 9 17907019835237815088
9849439 229 18265053707384227740
9896288 288 17685493548573238818
9981440 41 18190463942251502323

> <PUBCHEM_SHAPE_MULTIPOLES>
528.08
14.77
5.2
1.13
19.45
0.34
0.09
12.92
-0.2
-8.08
-1.1
-1.41
0.29
1.59

> <PUBCHEM_SHAPE_SELFOVERLAP>
1150.418

> <PUBCHEM_SHAPE_VOLUME>
288

> <PUBCHEM_COORDINATE_TYPE>
2
5
10

$$$$
