45784099
  -OEChem-12032416253D

 68 71  0     1  0  0  0  0  0999 V2000
   -3.3881   -0.2369    0.6788 O   0  0  0  0  0  0  0  0  0  0  0  0
    5.2228    3.2179    1.4197 O   0  0  0  0  0  0  0  0  0  0  0  0
    2.2935    0.2012   -0.6625 N   0  0  0  0  0  0  0  0  0  0  0  0
   -2.8618   -1.1029   -1.3155 N   0  0  0  0  0  0  0  0  0  0  0  0
    6.4516    3.4618   -0.5102 N   0  0  0  0  0  0  0  0  0  0  0  0
   -3.2527    0.2088   -1.5093 N   0  0  0  0  0  0  0  0  0  0  0  0
   -3.7784    2.7133    1.0514 N   0  0  0  0  0  0  0  0  0  0  0  0
   -4.9429    4.0505   -0.2855 N   0  0  0  0  0  0  0  0  0  0  0  0
    1.1894   -2.1041    0.7729 C   0  0  1  0  0  0  0  0  0  0  0  0
    1.3157   -2.0579   -0.7677 C   0  0  2  0  0  0  0  0  0  0  0  0
   -0.2782   -1.9527    1.1971 C   0  0  0  0  0  0  0  0  0  0  0  0
   -1.2079   -3.0156    0.5734 C   0  0  2  0  0  0  0  0  0  0  0  0
    1.8029   -3.3889    1.3461 C   0  0  0  0  0  0  0  0  0  0  0  0
    1.2632   -0.6209   -1.2969 C   0  0  0  0  0  0  0  0  0  0  0  0
    0.2591   -2.8801   -1.4603 C   0  0  0  0  0  0  0  0  0  0  0  0
   -0.8679   -3.3272   -0.8763 C   0  0  0  0  0  0  0  0  0  0  0  0
    3.6013   -0.0412   -1.2871 C   0  0  0  0  0  0  0  0  0  0  0  0
    1.9292    1.6233   -0.7293 C   0  0  0  0  0  0  0  0  0  0  0  0
   -2.6619   -2.5650    0.7612 C   0  0  0  0  0  0  0  0  0  0  0  0
    4.3673    2.2613   -0.5950 C   0  0  0  0  0  0  0  0  0  0  0  0
    4.6996    0.7704   -0.5981 C   0  0  0  0  0  0  0  0  0  0  0  0
    2.9700    2.4932   -0.0223 C   0  0  0  0  0  0  0  0  0  0  0  0
    3.2492   -3.5394    0.8855 C   0  0  0  0  0  0  0  0  0  0  0  0
    1.7176   -3.3855    2.8691 C   0  0  0  0  0  0  0  0  0  0  0  0
   -1.8148   -4.2147   -1.6366 C   0  0  0  0  0  0  0  0  0  0  0  0
   -2.9563   -1.3193   -0.0244 C   0  0  0  0  0  0  0  0  0  0  0  0
    5.3741    3.0147    0.2176 C   0  0  0  0  0  0  0  0  0  0  0  0
   -3.5508    0.6746   -0.3189 C   0  0  0  0  0  0  0  0  0  0  0  0
   -3.9998    1.9987   -0.0921 C   0  0  0  0  0  0  0  0  0  0  0  0
   -4.7202    2.8447   -0.9020 C   0  0  0  0  0  0  0  0  0  0  0  0
   -4.3629    3.9384    0.8888 C   0  0  0  0  0  0  0  0  0  0  0  0
   -3.0620    2.2792    2.2285 C   0  0  0  0  0  0  0  0  0  0  0  0
    1.7410   -1.2687    1.2222 H   0  0  0  0  0  0  0  0  0  0  0  0
    2.2667   -2.4766   -1.0984 H   0  0  0  0  0  0  0  0  0  0  0  0
   -0.3926   -1.9534    2.2863 H   0  0  0  0  0  0  0  0  0  0  0  0
   -0.5922   -0.9442    0.9005 H   0  0  0  0  0  0  0  0  0  0  0  0
   -1.0823   -3.9491    1.1386 H   0  0  0  0  0  0  0  0  0  0  0  0
    1.2621   -4.2745    0.9913 H   0  0  0  0  0  0  0  0  0  0  0  0
    1.3556   -0.5990   -2.3919 H   0  0  0  0  0  0  0  0  0  0  0  0
    0.2683   -0.2086   -1.0801 H   0  0  0  0  0  0  0  0  0  0  0  0
    0.4566   -3.1303   -2.5006 H   0  0  0  0  0  0  0  0  0  0  0  0
    3.5780    0.2123   -2.3554 H   0  0  0  0  0  0  0  0  0  0  0  0
    3.8858   -1.0956   -1.2125 H   0  0  0  0  0  0  0  0  0  0  0  0
    1.8202    1.9499   -1.7719 H   0  0  0  0  0  0  0  0  0  0  0  0
    0.9639    1.7855   -0.2338 H   0  0  0  0  0  0  0  0  0  0  0  0
   -2.8585   -2.3828    1.8254 H   0  0  0  0  0  0  0  0  0  0  0  0
   -3.3617   -3.3499    0.4523 H   0  0  0  0  0  0  0  0  0  0  0  0
    4.3833    2.6346   -1.6278 H   0  0  0  0  0  0  0  0  0  0  0  0
    5.6555    0.5993   -1.1084 H   0  0  0  0  0  0  0  0  0  0  0  0
    4.8313    0.4092    0.4310 H   0  0  0  0  0  0  0  0  0  0  0  0
    2.9451    2.2642    1.0517 H   0  0  0  0  0  0  0  0  0  0  0  0
    2.6937    3.5503   -0.1202 H   0  0  0  0  0  0  0  0  0  0  0  0
    3.7704   -4.2891    1.4925 H   0  0  0  0  0  0  0  0  0  0  0  0
    3.3238   -3.8976   -0.1452 H   0  0  0  0  0  0  0  0  0  0  0  0
    3.8075   -2.6019    0.9794 H   0  0  0  0  0  0  0  0  0  0  0  0
    0.6913   -3.5143    3.2246 H   0  0  0  0  0  0  0  0  0  0  0  0
    2.2905   -4.2198    3.2899 H   0  0  0  0  0  0  0  0  0  0  0  0
    2.1222   -2.4611    3.2951 H   0  0  0  0  0  0  0  0  0  0  0  0
   -2.7683   -3.7181   -1.8334 H   0  0  0  0  0  0  0  0  0  0  0  0
   -1.4027   -4.5190   -2.6051 H   0  0  0  0  0  0  0  0  0  0  0  0
   -2.0099   -5.1302   -1.0682 H   0  0  0  0  0  0  0  0  0  0  0  0
    7.1959    3.9906   -0.0676 H   0  0  0  0  0  0  0  0  0  0  0  0
    6.5536    3.2775   -1.5031 H   0  0  0  0  0  0  0  0  0  0  0  0
   -5.0929    2.6527   -1.8983 H   0  0  0  0  0  0  0  0  0  0  0  0
   -4.3362    4.7044    1.6520 H   0  0  0  0  0  0  0  0  0  0  0  0
   -3.6538    1.5100    2.7305 H   0  0  0  0  0  0  0  0  0  0  0  0
   -2.0859    1.8912    1.9264 H   0  0  0  0  0  0  0  0  0  0  0  0
   -2.9203    3.1305    2.8998 H   0  0  0  0  0  0  0  0  0  0  0  0
  1 26  1  0  0  0  0
  1 28  1  0  0  0  0
  2 27  2  0  0  0  0
  3 14  1  0  0  0  0
  3 17  1  0  0  0  0
  3 18  1  0  0  0  0
  4  6  1  0  0  0  0
  4 26  2  0  0  0  0
  5 27  1  0  0  0  0
  5 62  1  0  0  0  0
  5 63  1  0  0  0  0
  6 28  2  0  0  0  0
  7 29  1  0  0  0  0
  7 31  1  0  0  0  0
  7 32  1  0  0  0  0
  8 30  1  0  0  0  0
  8 31  2  0  0  0  0
  9 10  1  0  0  0  0
  9 11  1  0  0  0  0
  9 13  1  0  0  0  0
  9 33  1  0  0  0  0
 10 14  1  0  0  0  0
 10 15  1  0  0  0  0
 10 34  1  0  0  0  0
 11 12  1  0  0  0  0
 11 35  1  0  0  0  0
 11 36  1  0  0  0  0
 12 16  1  0  0  0  0
 12 19  1  0  0  0  0
 12 37  1  0  0  0  0
 13 23  1  0  0  0  0
 13 24  1  0  0  0  0
 13 38  1  0  0  0  0
 14 39  1  0  0  0  0
 14 40  1  0  0  0  0
 15 16  2  0  0  0  0
 15 41  1  0  0  0  0
 16 25  1  0  0  0  0
 17 21  1  0  0  0  0
 17 42  1  0  0  0  0
 17 43  1  0  0  0  0
 18 22  1  0  0  0  0
 18 44  1  0  0  0  0
 18 45  1  0  0  0  0
 19 26  1  0  0  0  0
 19 46  1  0  0  0  0
 19 47  1  0  0  0  0
 20 21  1  0  0  0  0
 20 22  1  0  0  0  0
 20 27  1  0  0  0  0
 20 48  1  0  0  0  0
 21 49  1  0  0  0  0
 21 50  1  0  0  0  0
 22 51  1  0  0  0  0
 22 52  1  0  0  0  0
 23 53  1  0  0  0  0
 23 54  1  0  0  0  0
 23 55  1  0  0  0  0
 24 56  1  0  0  0  0
 24 57  1  0  0  0  0
 24 58  1  0  0  0  0
 25 59  1  0  0  0  0
 25 60  1  0  0  0  0
 25 61  1  0  0  0  0
 28 29  1  0  0  0  0
 29 30  2  0  0  0  0
 30 64  1  0  0  0  0
 31 65  1  0  0  0  0
 32 66  1  0  0  0  0
 32 67  1  0  0  0  0
 32 68  1  0  0  0  0
M  END
> <PUBCHEM_COMPOUND_CID>
45784099

> <PUBCHEM_CONFORMER_RMSD>
1

> <PUBCHEM_CONFORMER_DIVERSEORDER>
16
104
105
24
29
88
13
64
58
15
117
89
40
36
66
27
138
125
129
114
144
53
152
21
156
25
132
20
57
54
110
93
61
140
158
17
113
155
82
45
123
128
76
99
22
130
74
46
149
122
33
44
55
90
34
131
159
35
133
106
126
47
72
69
78
120
43
98
56
96
92
139
32
141
103
136
8
37
83
68
85
143
153
77
50
19
23
94
2
91
48
150
73
86
49
109
7
87
31
62
39
127
112
30
154
108
101
95
51
67
97
75
115
100
41
137
9
6
84
121
38
119
118
134
26
107
28
4
11
12
145
63
42
102
80
14
3
157
146
148
124
111
71
135
147
52
116
5
59
79
160
65
151
10
142
18
81
70
60
1

> <PUBCHEM_MMFF94_PARTIAL_CHARGES>
30
1 -0.28
10 0.14
12 0.14
14 0.27
15 -0.29
16 -0.28
17 0.27
18 0.27
19 0.18
2 -0.57
20 0.06
25 0.14
26 0.3
27 0.57
28 0.48
29 -0.15
3 -0.81
30 0.08
31 0.04
32 0.26
4 -0.34
41 0.15
5 -0.8
6 -0.34
62 0.37
63 0.37
64 0.15
65 0.15
7 0.05
8 -0.57

> <PUBCHEM_EFFECTIVE_ROTOR_COUNT>
9

> <PUBCHEM_PHARMACOPHORE_FEATURES>
9
1 2 acceptor
1 3 cation
1 5 donor
3 13 23 24 hydrophobe
3 7 8 31 cation
5 1 4 6 26 28 rings
5 7 8 29 30 31 rings
6 3 17 18 20 21 22 rings
6 9 10 11 12 15 16 rings

> <PUBCHEM_HEAVY_ATOM_COUNT>
32

> <PUBCHEM_ATOM_DEF_STEREO_COUNT>
3

> <PUBCHEM_ATOM_UDEF_STEREO_COUNT>
0

> <PUBCHEM_BOND_DEF_STEREO_COUNT>
0

> <PUBCHEM_BOND_UDEF_STEREO_COUNT>
0

> <PUBCHEM_ISOTOPIC_ATOM_COUNT>
0

> <PUBCHEM_COMPONENT_COUNT>
1

> <PUBCHEM_CACTVS_TAUTO_COUNT>
2

> <PUBCHEM_CONFORMER_ID>
02BA9C2300000010

> <PUBCHEM_MMFF94_ENERGY>
51.1383

> <PUBCHEM_FEATURE_SELFOVERLAP>
45.671

> <PUBCHEM_SHAPE_FINGERPRINT>
10006869 2 18408605886052678051
10483366 6 17766299578217758006
10675989 125 17980201877183498569
10937287 8 18341333301655452901
12107183 9 18336253567015724714
12422481 6 17387101283919558424
12633257 1 17827921724618081991
12655364 131 17608047067247582242
12788726 201 17905036303212485386
14040222 75 16609973838996547661
14251764 75 18270410373716921865
14466204 15 18264485264647364256
14705955 166 17766252647326294880
14725015 67 18050565445908908921
14955137 171 17685783414966843299
15081414 286 17475516075893894727
16067690 210 17473522025721342712
17980427 23 18051388704876637763
19304152 47 18041577934415442225
20587220 46 13240509469952422306
21033650 10 18048619276452985748
21796203 349 17401804854811319624
3388396 114 18268973449246908501
376196 1 18341902896139740814
4280585 95 11023561146625135974
4616759 239 16815719437887494360
469060 322 17752223913826024683
474 4 17907016176120578375
5252454 2 18041857103220997071
5283173 99 18270685406453301628
550186 7 17986126320653198076
5895379 119 17555457227931196483
7288768 16 18187088364561069369
9981440 41 18261955266183844811

> <PUBCHEM_SHAPE_MULTIPOLES>
616.92
11.43
7.1
1.84
4.24
0.34
0.79
18.91
0.08
0.47
1.33
-0.06
-1.25
-1.98

> <PUBCHEM_SHAPE_SELFOVERLAP>
1302.505

> <PUBCHEM_SHAPE_VOLUME>
347.3

> <PUBCHEM_COORDINATE_TYPE>
2
5
10

$$$$
