51137803
  -OEChem-12032416243D

 50 53  0     1  0  0  0  0  0999 V2000
    2.0485    0.7905   -0.1066 O   0  0  0  0  0  0  0  0  0  0  0  0
   -2.2122    2.3831    1.3638 O   0  0  0  0  0  0  0  0  0  0  0  0
    0.4478   -1.1603    0.4001 O   0  0  0  0  0  0  0  0  0  0  0  0
   -0.5363    2.7021   -0.1881 N   0  0  0  0  0  0  0  0  0  0  0  0
   -2.5932    1.7876   -0.8307 N   0  0  0  0  0  0  0  0  0  0  0  0
    3.8542    1.8658    0.6598 N   0  0  0  0  0  0  0  0  0  0  0  0
    4.1433    0.5144    0.6281 N   0  0  0  0  0  0  0  0  0  0  0  0
    1.7721    3.2258    0.0395 C   0  0  1  0  0  0  0  0  0  0  0  0
    1.3484    3.4106   -1.4254 C   0  0  0  0  0  0  0  0  0  0  0  0
    0.4215    3.2490    0.7659 C   0  0  0  0  0  0  0  0  0  0  0  0
    0.0347    2.6450   -1.5307 C   0  0  0  0  0  0  0  0  0  0  0  0
    2.6219    1.9803    0.2225 C   0  0  0  0  0  0  0  0  0  0  0  0
   -1.8117    2.2978    0.1997 C   0  0  0  0  0  0  0  0  0  0  0  0
    3.0612   -0.0742    0.1746 C   0  0  0  0  0  0  0  0  0  0  0  0
   -3.9420    1.3151   -0.6190 C   0  0  0  0  0  0  0  0  0  0  0  0
    2.7872   -1.4611   -0.0661 C   0  0  0  0  0  0  0  0  0  0  0  0
   -3.9780   -0.1458   -0.2749 C   0  0  0  0  0  0  0  0  0  0  0  0
    1.4923   -1.9657    0.0531 C   0  0  0  0  0  0  0  0  0  0  0  0
    3.8360   -2.3090   -0.4217 C   0  0  0  0  0  0  0  0  0  0  0  0
   -4.0830   -1.0989   -1.2880 C   0  0  0  0  0  0  0  0  0  0  0  0
   -3.9066   -0.5502    1.0581 C   0  0  0  0  0  0  0  0  0  0  0  0
    1.2462   -3.3181   -0.1833 C   0  0  0  0  0  0  0  0  0  0  0  0
    3.5900   -3.6615   -0.6582 C   0  0  0  0  0  0  0  0  0  0  0  0
    2.2951   -4.1662   -0.5390 C   0  0  0  0  0  0  0  0  0  0  0  0
   -4.1167   -2.4562   -0.9681 C   0  0  0  0  0  0  0  0  0  0  0  0
   -3.9403   -1.9074    1.3781 C   0  0  0  0  0  0  0  0  0  0  0  0
   -4.0453   -2.8605    0.3649 C   0  0  0  0  0  0  0  0  0  0  0  0
    0.1648   -1.0322    1.7915 C   0  0  0  0  0  0  0  0  0  0  0  0
    2.3849    4.0738    0.3687 H   0  0  0  0  0  0  0  0  0  0  0  0
    1.1602    4.4753   -1.6137 H   0  0  0  0  0  0  0  0  0  0  0  0
    2.0882    3.0661   -2.1547 H   0  0  0  0  0  0  0  0  0  0  0  0
    0.1071    4.2762    0.9835 H   0  0  0  0  0  0  0  0  0  0  0  0
    0.4110    2.6715    1.6958 H   0  0  0  0  0  0  0  0  0  0  0  0
    0.1872    1.5935   -1.7949 H   0  0  0  0  0  0  0  0  0  0  0  0
   -0.6447    3.0982   -2.2588 H   0  0  0  0  0  0  0  0  0  0  0  0
   -2.2053    1.6920   -1.7624 H   0  0  0  0  0  0  0  0  0  0  0  0
   -4.4207    1.9059    0.1710 H   0  0  0  0  0  0  0  0  0  0  0  0
   -4.5043    1.5057   -1.5403 H   0  0  0  0  0  0  0  0  0  0  0  0
    4.8526   -1.9361   -0.5221 H   0  0  0  0  0  0  0  0  0  0  0  0
   -4.1373   -0.7967   -2.3305 H   0  0  0  0  0  0  0  0  0  0  0  0
   -3.8281    0.1800    1.8586 H   0  0  0  0  0  0  0  0  0  0  0  0
    0.2398   -3.7183   -0.0932 H   0  0  0  0  0  0  0  0  0  0  0  0
    4.4065   -4.3218   -0.9356 H   0  0  0  0  0  0  0  0  0  0  0  0
    2.1035   -5.2192   -0.7234 H   0  0  0  0  0  0  0  0  0  0  0  0
   -4.1975   -3.1983   -1.7570 H   0  0  0  0  0  0  0  0  0  0  0  0
   -3.8844   -2.2222    2.4160 H   0  0  0  0  0  0  0  0  0  0  0  0
   -4.0708   -3.9173    0.6141 H   0  0  0  0  0  0  0  0  0  0  0  0
   -0.1915   -1.9854    2.1945 H   0  0  0  0  0  0  0  0  0  0  0  0
    1.0475   -0.6980    2.3457 H   0  0  0  0  0  0  0  0  0  0  0  0
   -0.6246   -0.2855    1.9125 H   0  0  0  0  0  0  0  0  0  0  0  0
  1 12  1  0  0  0  0
  1 14  1  0  0  0  0
  2 13  2  0  0  0  0
  3 18  1  0  0  0  0
  3 28  1  0  0  0  0
  4 10  1  0  0  0  0
  4 11  1  0  0  0  0
  4 13  1  0  0  0  0
  5 13  1  0  0  0  0
  5 15  1  0  0  0  0
  5 36  1  0  0  0  0
  6  7  1  0  0  0  0
  6 12  2  0  0  0  0
  7 14  2  0  0  0  0
  8  9  1  0  0  0  0
  8 10  1  0  0  0  0
  8 12  1  0  0  0  0
  8 29  1  0  0  0  0
  9 11  1  0  0  0  0
  9 30  1  0  0  0  0
  9 31  1  0  0  0  0
 10 32  1  0  0  0  0
 10 33  1  0  0  0  0
 11 34  1  0  0  0  0
 11 35  1  0  0  0  0
 14 16  1  0  0  0  0
 15 17  1  0  0  0  0
 15 37  1  0  0  0  0
 15 38  1  0  0  0  0
 16 18  1  0  0  0  0
 16 19  2  0  0  0  0
 17 20  2  0  0  0  0
 17 21  1  0  0  0  0
 18 22  2  0  0  0  0
 19 23  1  0  0  0  0
 19 39  1  0  0  0  0
 20 25  1  0  0  0  0
 20 40  1  0  0  0  0
 21 26  2  0  0  0  0
 21 41  1  0  0  0  0
 22 24  1  0  0  0  0
 22 42  1  0  0  0  0
 23 24  2  0  0  0  0
 23 43  1  0  0  0  0
 24 44  1  0  0  0  0
 25 27  2  0  0  0  0
 25 45  1  0  0  0  0
 26 27  1  0  0  0  0
 26 46  1  0  0  0  0
 27 47  1  0  0  0  0
 28 48  1  0  0  0  0
 28 49  1  0  0  0  0
 28 50  1  0  0  0  0
M  END
> <PUBCHEM_COMPOUND_CID>
51137803

> <PUBCHEM_CONFORMER_RMSD>
1.2

> <PUBCHEM_CONFORMER_DIVERSEORDER>
1
42
96
73
62
90
87
36
80
78
43
92
30
76
60
52
33
56
64
70
18
39
35
63
16
83
95
10
72
40
6
38
91
2
68
57
67
93
26
49
20
79
41
34
86
28
94
3
59
74
88
82
19
23
50
29
31
97
89
48
53
45
69
21
54
98
7
81
27
12
75
22
11
71
32
46
15
47
14
61
65
44
77
5
25
24
13
9
58
37
85
8
55
51
17
66
84
4

> <PUBCHEM_MMFF94_PARTIAL_CHARGES>
37
1 -0.28
10 0.3
11 0.3
12 0.3
13 0.69
14 0.43
15 0.44
16 0.05
17 -0.14
18 0.08
19 -0.15
2 -0.57
20 -0.15
21 -0.15
22 -0.15
23 -0.15
24 -0.15
25 -0.15
26 -0.15
27 -0.15
28 0.28
3 -0.36
36 0.37
39 0.15
4 -0.66
40 0.15
41 0.15
42 0.15
43 0.15
44 0.15
45 0.15
46 0.15
47 0.15
5 -0.73
6 -0.34
7 -0.34
8 0.18

> <PUBCHEM_EFFECTIVE_ROTOR_COUNT>
8

> <PUBCHEM_PHARMACOPHORE_FEATURES>
7
1 2 acceptor
1 3 acceptor
1 5 donor
5 1 6 7 12 14 rings
5 4 8 9 10 11 rings
6 16 18 19 22 23 24 rings
6 17 20 21 25 26 27 rings

> <PUBCHEM_HEAVY_ATOM_COUNT>
28

> <PUBCHEM_ATOM_DEF_STEREO_COUNT>
1

> <PUBCHEM_ATOM_UDEF_STEREO_COUNT>
0

> <PUBCHEM_BOND_DEF_STEREO_COUNT>
0

> <PUBCHEM_BOND_UDEF_STEREO_COUNT>
0

> <PUBCHEM_ISOTOPIC_ATOM_COUNT>
0

> <PUBCHEM_COMPONENT_COUNT>
1

> <PUBCHEM_CACTVS_TAUTO_COUNT>
2

> <PUBCHEM_CONFORMER_ID>
030C4D0B00000001

> <PUBCHEM_MMFF94_ENERGY>
69.3185

> <PUBCHEM_FEATURE_SELFOVERLAP>
35.523

> <PUBCHEM_SHAPE_FINGERPRINT>
10675989 125 15312932383327039831
11136131 41 18262504988693029258
11513181 2 18202283610598438031
12422481 6 18196905895511948594
13122387 1 16752967538408059911
13383661 66 17696789853094562822
1361 2 17762617696160325851
14114211 80 17255999038811557353
14251757 5 17618237108647888334
14659021 117 17760361098693649578
17909252 39 18341061726589402358
19930381 70 18266458891992598419
20028762 73 18056755661971416486
20567600 299 18340766056576564313
20764821 26 18263935353697877466
20775438 99 17689384440481066173
20775530 9 18336830775427099091
22113638 7 17760927741822962613
221490 88 18339082596926818810
23379529 103 17911805665555784766
23559900 14 18339071605952215833
3737641 26 18342187656286157310
392239 28 17844797264993342000
4280585 95 18119235186855101226
4403749 210 18050540109982057248
445580 102 18192152822540546459
463206 1 18193844734401080744
57527585 103 17677921013622150075
6287921 2 18338242681791429983

> <PUBCHEM_SHAPE_MULTIPOLES>
538.69
8.9
5.95
1.28
5.64
0.54
0.08
5.59
-0.24
-3.43
-1.15
0.74
-0.22
0.74

> <PUBCHEM_SHAPE_SELFOVERLAP>
1166.882

> <PUBCHEM_SHAPE_VOLUME>
295.6

> <PUBCHEM_COORDINATE_TYPE>
2
5
10

$$$$
