75536393
  -OEChem-12032416303D

 62 65  0     1  0  0  0  0  0999 V2000
    3.6994   -0.1963    0.6811 O   0  0  0  0  0  0  0  0  0  0  0  0
    6.3266    0.8567    1.5042 O   0  0  0  0  0  0  0  0  0  0  0  0
    0.1562   -3.0621   -1.1252 O   0  0  0  0  0  0  0  0  0  0  0  0
    2.0078    3.7946    0.0489 O   0  0  0  0  0  0  0  0  0  0  0  0
   -5.7531   -1.5858    0.4614 O   0  0  0  0  0  0  0  0  0  0  0  0
    2.1548    1.6436   -0.8126 N   0  0  0  0  0  0  0  0  0  0  0  0
    1.5398   -3.1899   -1.1058 N   0  0  0  0  0  0  0  0  0  0  0  0
    0.0897    2.5260   -0.2711 N   0  0  0  0  0  0  0  0  0  0  0  0
    4.0578   -1.2889   -0.1685 C   0  0  1  0  0  0  0  0  0  0  0  0
    4.2467    1.0740    0.3046 C   0  0  1  0  0  0  0  0  0  0  0  0
    5.7756    1.0126    0.1938 C   0  0  2  0  0  0  0  0  0  0  0  0
    5.5752   -1.4607   -0.2144 C   0  0  0  0  0  0  0  0  0  0  0  0
    6.2502   -0.1646   -0.6538 C   0  0  0  0  0  0  0  0  0  0  0  0
    3.3866   -2.5397    0.3857 C   0  0  0  0  0  0  0  0  0  0  0  0
    3.5781    1.6081   -0.9604 C   0  0  0  0  0  0  0  0  0  0  0  0
    1.9260   -2.5946    0.0262 C   0  0  0  0  0  0  0  0  0  0  0  0
    0.8407   -2.0778    0.7547 C   0  0  0  0  0  0  0  0  0  0  0  0
    1.4630    2.7519   -0.3111 C   0  0  0  0  0  0  0  0  0  0  0  0
   -0.2482   -2.3981   -0.0122 C   0  0  0  0  0  0  0  0  0  0  0  0
   -1.6619   -2.1907    0.1094 C   0  0  0  0  0  0  0  0  0  0  0  0
   -0.8593    3.5062    0.2041 C   0  0  0  0  0  0  0  0  0  0  0  0
   -2.4481   -2.0565   -1.0349 C   0  0  0  0  0  0  0  0  0  0  0  0
   -2.2507   -2.1225    1.3721 C   0  0  0  0  0  0  0  0  0  0  0  0
   -2.2711    2.9998    0.1374 C   0  0  0  0  0  0  0  0  0  0  0  0
   -3.8231   -1.8542   -0.9166 C   0  0  0  0  0  0  0  0  0  0  0  0
   -3.6257   -1.9202    1.4905 C   0  0  0  0  0  0  0  0  0  0  0  0
   -4.4119   -1.7861    0.3460 C   0  0  0  0  0  0  0  0  0  0  0  0
   -3.0325    3.2048   -1.0133 C   0  0  0  0  0  0  0  0  0  0  0  0
   -2.8213    2.3237    1.2262 C   0  0  0  0  0  0  0  0  0  0  0  0
   -4.3440    2.7337   -1.0751 C   0  0  0  0  0  0  0  0  0  0  0  0
   -4.1327    1.8524    1.1645 C   0  0  0  0  0  0  0  0  0  0  0  0
   -4.8940    2.0577    0.0139 C   0  0  0  0  0  0  0  0  0  0  0  0
   -6.4967   -1.4572   -0.7497 C   0  0  0  0  0  0  0  0  0  0  0  0
    3.6865   -1.0994   -1.1827 H   0  0  0  0  0  0  0  0  0  0  0  0
    3.9924    1.7452    1.1350 H   0  0  0  0  0  0  0  0  0  0  0  0
    6.1666    1.9545   -0.2067 H   0  0  0  0  0  0  0  0  0  0  0  0
    5.8512   -2.2723   -0.8971 H   0  0  0  0  0  0  0  0  0  0  0  0
    5.9473   -1.7319    0.7818 H   0  0  0  0  0  0  0  0  0  0  0  0
    7.3369   -0.2843   -0.5733 H   0  0  0  0  0  0  0  0  0  0  0  0
    6.0208    0.0229   -1.7093 H   0  0  0  0  0  0  0  0  0  0  0  0
    3.4832   -2.5778    1.4783 H   0  0  0  0  0  0  0  0  0  0  0  0
    3.8701   -3.4410   -0.0128 H   0  0  0  0  0  0  0  0  0  0  0  0
    3.7856    0.9832   -1.8335 H   0  0  0  0  0  0  0  0  0  0  0  0
    3.9441    2.6168   -1.1823 H   0  0  0  0  0  0  0  0  0  0  0  0
    7.2952    0.8677    1.4190 H   0  0  0  0  0  0  0  0  0  0  0  0
    1.6229    0.8178   -1.0700 H   0  0  0  0  0  0  0  0  0  0  0  0
    0.8540   -1.5484    1.6963 H   0  0  0  0  0  0  0  0  0  0  0  0
   -0.2541    1.6249   -0.5905 H   0  0  0  0  0  0  0  0  0  0  0  0
   -0.7415    4.4170   -0.3951 H   0  0  0  0  0  0  0  0  0  0  0  0
   -0.5885    3.7759    1.2320 H   0  0  0  0  0  0  0  0  0  0  0  0
   -2.0136   -2.0972   -2.0310 H   0  0  0  0  0  0  0  0  0  0  0  0
   -1.6594   -2.2272    2.2785 H   0  0  0  0  0  0  0  0  0  0  0  0
   -4.3739   -1.7560   -1.8458 H   0  0  0  0  0  0  0  0  0  0  0  0
   -4.0790   -1.8671    2.4766 H   0  0  0  0  0  0  0  0  0  0  0  0
   -2.6143    3.7285   -1.8689 H   0  0  0  0  0  0  0  0  0  0  0  0
   -2.2375    2.1555    2.1273 H   0  0  0  0  0  0  0  0  0  0  0  0
   -4.9369    2.8930   -1.9709 H   0  0  0  0  0  0  0  0  0  0  0  0
   -4.5616    1.3270    2.0127 H   0  0  0  0  0  0  0  0  0  0  0  0
   -5.9161    1.6937   -0.0326 H   0  0  0  0  0  0  0  0  0  0  0  0
   -7.5429   -1.2945   -0.4706 H   0  0  0  0  0  0  0  0  0  0  0  0
   -6.4624   -2.3787   -1.3407 H   0  0  0  0  0  0  0  0  0  0  0  0
   -6.1812   -0.5832   -1.3290 H   0  0  0  0  0  0  0  0  0  0  0  0
  1  9  1  0  0  0  0
  1 10  1  0  0  0  0
  2 11  1  0  0  0  0
  2 45  1  0  0  0  0
  3  7  1  0  0  0  0
  3 19  1  0  0  0  0
  4 18  2  0  0  0  0
  5 27  1  0  0  0  0
  5 33  1  0  0  0  0
  6 15  1  0  0  0  0
  6 18  1  0  0  0  0
  6 46  1  0  0  0  0
  7 16  2  0  0  0  0
  8 18  1  0  0  0  0
  8 21  1  0  0  0  0
  8 48  1  0  0  0  0
  9 12  1  0  0  0  0
  9 14  1  0  0  0  0
  9 34  1  0  0  0  0
 10 11  1  0  0  0  0
 10 15  1  0  0  0  0
 10 35  1  0  0  0  0
 11 13  1  0  0  0  0
 11 36  1  0  0  0  0
 12 13  1  0  0  0  0
 12 37  1  0  0  0  0
 12 38  1  0  0  0  0
 13 39  1  0  0  0  0
 13 40  1  0  0  0  0
 14 16  1  0  0  0  0
 14 41  1  0  0  0  0
 14 42  1  0  0  0  0
 15 43  1  0  0  0  0
 15 44  1  0  0  0  0
 16 17  1  0  0  0  0
 17 19  2  0  0  0  0
 17 47  1  0  0  0  0
 19 20  1  0  0  0  0
 20 22  2  0  0  0  0
 20 23  1  0  0  0  0
 21 24  1  0  0  0  0
 21 49  1  0  0  0  0
 21 50  1  0  0  0  0
 22 25  1  0  0  0  0
 22 51  1  0  0  0  0
 23 26  2  0  0  0  0
 23 52  1  0  0  0  0
 24 28  2  0  0  0  0
 24 29  1  0  0  0  0
 25 27  2  0  0  0  0
 25 53  1  0  0  0  0
 26 27  1  0  0  0  0
 26 54  1  0  0  0  0
 28 30  1  0  0  0  0
 28 55  1  0  0  0  0
 29 31  2  0  0  0  0
 29 56  1  0  0  0  0
 30 32  2  0  0  0  0
 30 57  1  0  0  0  0
 31 32  1  0  0  0  0
 31 58  1  0  0  0  0
 32 59  1  0  0  0  0
 33 60  1  0  0  0  0
 33 61  1  0  0  0  0
 33 62  1  0  0  0  0
M  END
> <PUBCHEM_COMPOUND_CID>
75536393

> <PUBCHEM_CONFORMER_RMSD>
1.2

> <PUBCHEM_CONFORMER_DIVERSEORDER>
1
58
19
63
31
62
74
99
106
3
144
12
36
44
93
76
110
42
22
25
54
113
10
39
81
28
135
141
84
71
11
130
129
151
77
96
53
83
45
112
134
86
150
21
33
78
102
138
16
41
73
64
94
95
152
91
147
6
103
111
17
51
79
140
153
27
32
23
145
92
114
5
137
43
149
101
34
154
90
143
133
105
38
2
131
127
85
52
139
40
82
132
66
72
136
126
80
108
59
148
20
117
142
70
65
13
61
119
98
109
60
121
88
50
115
29
104
100
57
69
75
55
124
125
87
14
18
30
120
46
37
47
97
48
128
118
107
123
26
9
68
15
56
146
89
4
116
67
7
35
24
8
122
49

> <PUBCHEM_MMFF94_PARTIAL_CHARGES>
44
1 -0.56
10 0.28
11 0.28
14 0.18
15 0.3
16 0.11
17 -0.15
18 0.69
19 0.09
2 -0.68
20 0.05
21 0.44
22 -0.15
23 -0.15
24 -0.14
25 -0.15
26 -0.15
27 0.08
28 -0.15
29 -0.15
3 -0.02
30 -0.15
31 -0.15
32 -0.15
33 0.28
4 -0.57
45 0.4
46 0.37
47 0.15
48 0.37
5 -0.36
51 0.15
52 0.15
53 0.15
54 0.15
55 0.15
56 0.15
57 0.15
58 0.15
59 0.15
6 -0.73
7 -0.41
8 -0.73
9 0.28

> <PUBCHEM_EFFECTIVE_ROTOR_COUNT>
11.2

> <PUBCHEM_PHARMACOPHORE_FEATURES>
12
1 1 acceptor
1 2 acceptor
1 2 donor
1 4 acceptor
1 5 acceptor
1 6 donor
1 7 acceptor
1 8 donor
5 3 7 16 17 19 rings
6 1 9 10 11 12 13 rings
6 20 22 23 25 26 27 rings
6 24 28 29 30 31 32 rings

> <PUBCHEM_HEAVY_ATOM_COUNT>
33

> <PUBCHEM_ATOM_DEF_STEREO_COUNT>
3

> <PUBCHEM_ATOM_UDEF_STEREO_COUNT>
0

> <PUBCHEM_BOND_DEF_STEREO_COUNT>
0

> <PUBCHEM_BOND_UDEF_STEREO_COUNT>
0

> <PUBCHEM_ISOTOPIC_ATOM_COUNT>
0

> <PUBCHEM_COMPONENT_COUNT>
1

> <PUBCHEM_CACTVS_TAUTO_COUNT>
3

> <PUBCHEM_CONFORMER_ID>
0480980900000001

> <PUBCHEM_MMFF94_ENERGY>
70.4544

> <PUBCHEM_FEATURE_SELFOVERLAP>
60.949

> <PUBCHEM_SHAPE_FINGERPRINT>
10439779 11 18339915004844015816
10670039 82 18337405893624211742
10864689 126 17472424252942949580
10939801 23 18192992845488247080
11479125 193 15623368183360583080
11513181 2 18201720596183791918
12788726 201 18194700360790920596
12978246 48 18338518650340258480
13111901 25 18340217323729751617
14394314 77 18270121206596475393
15001296 14 18191865845283423120
15264996 151 18186518778941250097
15264996 55 16748457350443225019
15274700 208 17058918065693573968
15320467 1 18410293652636047732
15351339 4 18261098660884547939
15419008 145 18335406938883538234
15575132 122 18342458140405160543
15961568 22 18411422808550418871
15968369 153 18272085023866139908
16112460 7 18197226845506975665
16664035 1 18196373839739114385
17627616 140 17970904462560893147
19611394 137 18045231676828728723
20721686 56 18335143099021452091
20764821 26 18337971007761296837
21133410 90 17417800743077266081
21236236 1 18411419505298243593
24941158 1 16342874127058544638
3027735 51 18339646745703487129
338550 245 18334301967766915660
373842 8 18409728426402953927
4144715 1 18334305236058374954
463206 1 18338238141737120165
469060 322 17095523967796283399
508706 21 18260838097971719443
653340 110 18413666912030688088

> <PUBCHEM_SHAPE_MULTIPOLES>
634.83
14.38
5.5
1.2
7.49
2.25
0.13
-0.22
0.25
-3.2
-0.5
-0.58
-0.15
0.32

> <PUBCHEM_SHAPE_SELFOVERLAP>
1353.327

> <PUBCHEM_SHAPE_VOLUME>
352.9

> <PUBCHEM_COORDINATE_TYPE>
2
5
10

$$$$
