45784235
  -OEChem-12032416143D

 43 47  0     1  0  0  0  0  0999 V2000
    8.3546   -0.2794   -0.0414 F   0  0  0  0  0  0  0  0  0  0  0  0
   -6.3086    1.7718    0.3304 O   0  0  0  0  0  0  0  0  0  0  0  0
   -7.3409   -0.4039    0.4228 O   0  0  0  0  0  0  0  0  0  0  0  0
   -1.0624   -0.4798   -0.1690 N   0  0  1  0  0  0  0  0  0  0  0  0
    3.6108   -1.2088    0.5982 N   0  0  0  0  0  0  0  0  0  0  0  0
    2.9707    0.7909   -0.1305 N   0  0  0  0  0  0  0  0  0  0  0  0
    1.1357   -0.7923    0.5859 C   0  0  1  0  0  0  0  0  0  0  0  0
    0.3663    0.0834    1.5902 C   0  0  0  0  0  0  0  0  0  0  0  0
    0.2764   -0.7720   -0.6854 C   0  0  0  0  0  0  0  0  0  0  0  0
   -0.8605    0.5700    0.8296 C   0  0  0  0  0  0  0  0  0  0  0  0
    2.5648   -0.3679    0.3380 C   0  0  0  0  0  0  0  0  0  0  0  0
   -1.9864   -0.0759   -1.2185 C   0  0  0  0  0  0  0  0  0  0  0  0
   -3.4215   -0.2012   -0.7807 C   0  0  0  0  0  0  0  0  0  0  0  0
    4.7688   -0.5488    0.2759 C   0  0  0  0  0  0  0  0  0  0  0  0
    4.3427    0.6969   -0.1763 C   0  0  0  0  0  0  0  0  0  0  0  0
   -4.1433    0.9436   -0.4346 C   0  0  0  0  0  0  0  0  0  0  0  0
   -4.0238   -1.4706   -0.7266 C   0  0  0  0  0  0  0  0  0  0  0  0
   -5.4558    0.7787   -0.0420 C   0  0  0  0  0  0  0  0  0  0  0  0
    6.1115   -0.9232    0.3392 C   0  0  0  0  0  0  0  0  0  0  0  0
    5.2992    1.6377   -0.5940 C   0  0  0  0  0  0  0  0  0  0  0  0
   -5.3548   -1.6097   -0.3258 C   0  0  0  0  0  0  0  0  0  0  0  0
   -6.0453   -0.4637    0.0109 C   0  0  0  0  0  0  0  0  0  0  0  0
    7.0498    0.0254   -0.0805 C   0  0  0  0  0  0  0  0  0  0  0  0
    6.6530    1.2836   -0.5391 C   0  0  0  0  0  0  0  0  0  0  0  0
   -7.5011    1.0152    0.6232 C   0  0  0  0  0  0  0  0  0  0  0  0
    1.1411   -1.8179    0.9829 H   0  0  0  0  0  0  0  0  0  0  0  0
    0.3103   -1.7369   -1.2030 H   0  0  0  0  0  0  0  0  0  0  0  0
    0.6141    0.0048   -1.3844 H   0  0  0  0  0  0  0  0  0  0  0  0
    0.0597   -0.5295    2.4471 H   0  0  0  0  0  0  0  0  0  0  0  0
    0.9547    0.9225    1.9760 H   0  0  0  0  0  0  0  0  0  0  0  0
   -0.6445    1.5413    0.3662 H   0  0  0  0  0  0  0  0  0  0  0  0
   -1.7176    0.6846    1.5005 H   0  0  0  0  0  0  0  0  0  0  0  0
   -1.7752    0.9367   -1.5883 H   0  0  0  0  0  0  0  0  0  0  0  0
   -1.8650   -0.7305   -2.0933 H   0  0  0  0  0  0  0  0  0  0  0  0
    3.5463   -2.1500    0.9630 H   0  0  0  0  0  0  0  0  0  0  0  0
   -3.6937    1.9301   -0.4696 H   0  0  0  0  0  0  0  0  0  0  0  0
   -3.4578   -2.3586   -0.9975 H   0  0  0  0  0  0  0  0  0  0  0  0
    6.4172   -1.9003    0.6956 H   0  0  0  0  0  0  0  0  0  0  0  0
    5.0010    2.6180   -0.9520 H   0  0  0  0  0  0  0  0  0  0  0  0
   -5.8228   -2.5866   -0.2827 H   0  0  0  0  0  0  0  0  0  0  0  0
    7.4059    1.9996   -0.8585 H   0  0  0  0  0  0  0  0  0  0  0  0
   -7.7816    1.1927    1.6678 H   0  0  0  0  0  0  0  0  0  0  0  0
   -8.3106    1.3719   -0.0241 H   0  0  0  0  0  0  0  0  0  0  0  0
  1 23  1  0  0  0  0
  2 18  1  0  0  0  0
  2 25  1  0  0  0  0
  3 22  1  0  0  0  0
  3 25  1  0  0  0  0
  4  9  1  0  0  0  0
  4 10  1  0  0  0  0
  4 12  1  0  0  0  0
  5 11  1  0  0  0  0
  5 14  1  0  0  0  0
  5 35  1  0  0  0  0
  6 11  2  0  0  0  0
  6 15  1  0  0  0  0
  7  8  1  0  0  0  0
  7  9  1  0  0  0  0
  7 11  1  0  0  0  0
  7 26  1  0  0  0  0
  8 10  1  0  0  0  0
  8 29  1  0  0  0  0
  8 30  1  0  0  0  0
  9 27  1  0  0  0  0
  9 28  1  0  0  0  0
 10 31  1  0  0  0  0
 10 32  1  0  0  0  0
 12 13  1  0  0  0  0
 12 33  1  0  0  0  0
 12 34  1  0  0  0  0
 13 16  2  0  0  0  0
 13 17  1  0  0  0  0
 14 15  2  0  0  0  0
 14 19  1  0  0  0  0
 15 20  1  0  0  0  0
 16 18  1  0  0  0  0
 16 36  1  0  0  0  0
 17 21  2  0  0  0  0
 17 37  1  0  0  0  0
 18 22  2  0  0  0  0
 19 23  2  0  0  0  0
 19 38  1  0  0  0  0
 20 24  2  0  0  0  0
 20 39  1  0  0  0  0
 21 22  1  0  0  0  0
 21 40  1  0  0  0  0
 23 24  1  0  0  0  0
 24 41  1  0  0  0  0
 25 42  1  0  0  0  0
 25 43  1  0  0  0  0
M  END
> <PUBCHEM_COMPOUND_CID>
45784235

> <PUBCHEM_CONFORMER_RMSD>
0.8

> <PUBCHEM_CONFORMER_DIVERSEORDER>
1
53
78
11
60
45
51
50
26
44
76
15
68
73
56
25
82
54
17
3
47
9
64
69
83
66
21
46
52
75
57
10
55
41
63
2
59
72
18
7
29
14
80
19
28
42
8
38
71
48
24
5
4
77
20
70
49
40
58
62
31
27
74
12
33
13
34
65
37
32
43
23
67
22
30
35
61
6
16
36
81
39
84
79

> <PUBCHEM_MMFF94_PARTIAL_CHARGES>
31
1 -0.19
10 0.27
11 0.01
12 0.41
13 -0.14
14 -0.15
15 0.23
16 -0.15
17 -0.15
18 0.08
19 -0.15
2 -0.36
20 -0.15
21 -0.15
22 0.08
23 0.19
24 -0.15
25 0.56
3 -0.36
35 0.27
36 0.15
37 0.15
38 0.15
39 0.15
4 -0.81
40 0.15
41 0.15
5 0.03
6 -0.57
7 0.18
9 0.27

> <PUBCHEM_EFFECTIVE_ROTOR_COUNT>
4.6

> <PUBCHEM_PHARMACOPHORE_FEATURES>
10
1 2 acceptor
1 3 acceptor
1 4 cation
1 5 donor
3 5 6 11 cation
5 2 3 18 22 25 rings
5 4 7 8 9 10 rings
5 5 6 11 14 15 rings
6 13 16 17 18 21 22 rings
6 14 15 19 20 23 24 rings

> <PUBCHEM_HEAVY_ATOM_COUNT>
25

> <PUBCHEM_ATOM_DEF_STEREO_COUNT>
1

> <PUBCHEM_ATOM_UDEF_STEREO_COUNT>
0

> <PUBCHEM_BOND_DEF_STEREO_COUNT>
0

> <PUBCHEM_BOND_UDEF_STEREO_COUNT>
0

> <PUBCHEM_ISOTOPIC_ATOM_COUNT>
0

> <PUBCHEM_COMPONENT_COUNT>
1

> <PUBCHEM_CACTVS_TAUTO_COUNT>
2

> <PUBCHEM_CONFORMER_ID>
02BA9CAB00000001

> <PUBCHEM_MMFF94_ENERGY>
51.6668

> <PUBCHEM_FEATURE_SELFOVERLAP>
51.01

> <PUBCHEM_SHAPE_FINGERPRINT>
10 15 18409733950627429123
10066227 112 17346594205472801617
10299344 5 18410009944561478591
10595046 47 18335135384278798451
106641 1 12901552360253593116
10670039 82 16200157552143494697
10730089 173 18272652333686178657
11315181 36 18334012805526264343
11408170 108 17845375446140835670
11524674 6 16486972925402432431
11646440 116 16225767415263340476
11719270 70 17632296748932565918
12091667 2 17917709115552530783
12166972 35 18040154028835730692
12236239 1 18411136939405114524
12516196 113 9871750191522449214
12643181 29 15051728703318374668
12730499 353 17240198812213437362
12838862 33 14333119738028561172
13073987 5 15719661061630125157
13533116 47 16805873006195684770
14123256 10 16008748004916817619
14251752 14 18060700589163487352
14251764 18 18408321098795462231
14251764 46 18410292510180047743
14294032 229 17558848207807539112
14849402 71 17968948611569196612
14856354 85 18343022224952348967
14933364 13 18409167709790198685
15048467 5 18411981360467644621
15183329 4 18410849958275062125
15419008 47 15410611462897757483
15461852 350 10953462907618740371
15716309 27 18113898256308770435
16989713 51 17130697470214862239
17093844 174 16773790420538301735
18006028 8 13254797940807728922
20157964 124 18187365429086414874
20281389 69 18411979165365186729
21521721 280 17894632577855463544
21792961 116 17632581513257605870
220451 1 18335695044287719322
22224240 67 16298387971965277761
23035841 295 18411980265193039779
23081809 10 18341601638016306431
23198884 109 18333168375520514995
23516275 137 18268166274537480139
23536379 177 18410291410768718218
23569943 247 16735218311195336506
23576562 1 17058913632838975901
2747138 104 16298111981836319029
29717793 49 18131074831901421876
3009799 131 15554727771949416538
314173 85 15195569017428890490
3545911 37 17167859768836538354
397830 11 15286504186734127029
4073 2 18040721415115770410
4098825 35 18336827498504091922
4325135 7 18260266352231100941
4339292 15 16773222016635973959
445580 37 17917439704696135321
5265222 85 18129942424085839582
5283156 175 17775006761448309934
5758199 1 17894912936019461778
59682541 35 15502383352262216529
59755656 215 15338844144377366668
59755656 520 17967247624120563827

> <PUBCHEM_SHAPE_MULTIPOLES>
480.53
23.7
1.42
0.97
3.66
0.14
0.08
3.86
0.02
-0.62
-0.1
-0.23
0
-1.23

> <PUBCHEM_SHAPE_SELFOVERLAP>
1075.658

> <PUBCHEM_SHAPE_VOLUME>
259.1

> <PUBCHEM_COORDINATE_TYPE>
2
5
10

$$$$
