26761802
  -OEChem-12032416183D

 46 49  0     1  0  0  0  0  0999 V2000
   -4.8922    1.9342    0.6296 O   0  0  0  0  0  0  0  0  0  0  0  0
   -1.0036    2.3237   -1.6145 O   0  0  0  0  0  0  0  0  0  0  0  0
   -2.8974    1.4355    1.6824 O   0  0  0  0  0  0  0  0  0  0  0  0
   -1.8218    0.4297   -0.4975 N   0  0  0  0  0  0  0  0  0  0  0  0
   -2.6902   -3.0560    0.5619 N   0  0  0  0  0  0  0  0  0  0  0  0
   -4.6514   -2.6448   -0.4247 N   0  0  0  0  0  0  0  0  0  0  0  0
   -3.2370    0.8635   -0.6348 C   0  0  1  0  0  0  0  0  0  0  0  0
   -4.2044   -0.2467   -1.0969 C   0  0  0  0  0  0  0  0  0  0  0  0
   -1.5225   -0.8123    0.2729 C   0  0  0  0  0  0  0  0  0  0  0  0
   -2.6362   -1.7666    0.1226 C   0  0  0  0  0  0  0  0  0  0  0  0
   -3.8507   -1.5383   -0.4742 C   0  0  0  0  0  0  0  0  0  0  0  0
   -0.8179    1.2889   -0.9756 C   0  0  0  0  0  0  0  0  0  0  0  0
   -3.6260    1.4336    0.6994 C   0  0  0  0  0  0  0  0  0  0  0  0
   -3.9233   -3.5430    0.2079 C   0  0  0  0  0  0  0  0  0  0  0  0
    0.5828    0.9428   -0.6952 C   0  0  0  0  0  0  0  0  0  0  0  0
    1.2973    0.1475   -1.5911 C   0  0  0  0  0  0  0  0  0  0  0  0
    1.1974    1.4096    0.4667 C   0  0  0  0  0  0  0  0  0  0  0  0
    3.2413    0.2861   -0.1631 C   0  0  0  0  0  0  0  0  0  0  0  0
    2.6266   -0.1809   -1.3250 C   0  0  0  0  0  0  0  0  0  0  0  0
    2.5267    1.0812    0.7327 C   0  0  0  0  0  0  0  0  0  0  0  0
    4.6200   -0.0546    0.1131 C   0  0  0  0  0  0  0  0  0  0  0  0
   -5.3924    2.5124    1.8394 C   0  0  0  0  0  0  0  0  0  0  0  0
    4.9216   -1.2089    0.8359 C   0  0  0  0  0  0  0  0  0  0  0  0
    5.6474    0.7708   -0.3434 C   0  0  0  0  0  0  0  0  0  0  0  0
    6.2508   -1.5376    1.1024 C   0  0  0  0  0  0  0  0  0  0  0  0
    6.9766    0.4421   -0.0770 C   0  0  0  0  0  0  0  0  0  0  0  0
    7.2783   -0.7121    0.6459 C   0  0  0  0  0  0  0  0  0  0  0  0
   -3.2882    1.6940   -1.3494 H   0  0  0  0  0  0  0  0  0  0  0  0
   -4.1073   -0.3641   -2.1836 H   0  0  0  0  0  0  0  0  0  0  0  0
   -5.2505    0.0022   -0.8917 H   0  0  0  0  0  0  0  0  0  0  0  0
   -1.3750   -0.5374    1.3220 H   0  0  0  0  0  0  0  0  0  0  0  0
   -0.5961   -1.2640   -0.0907 H   0  0  0  0  0  0  0  0  0  0  0  0
   -1.9648   -3.5599    1.0549 H   0  0  0  0  0  0  0  0  0  0  0  0
   -4.2241   -4.5545    0.4405 H   0  0  0  0  0  0  0  0  0  0  0  0
    0.8275   -0.2217   -2.4990 H   0  0  0  0  0  0  0  0  0  0  0  0
    0.6490    2.0292    1.1716 H   0  0  0  0  0  0  0  0  0  0  0  0
    3.1691   -0.8021   -2.0338 H   0  0  0  0  0  0  0  0  0  0  0  0
    2.9906    1.4532    1.6432 H   0  0  0  0  0  0  0  0  0  0  0  0
   -6.4070    2.8728    1.6499 H   0  0  0  0  0  0  0  0  0  0  0  0
   -4.7688    3.3598    2.1402 H   0  0  0  0  0  0  0  0  0  0  0  0
   -5.4296    1.7587    2.6317 H   0  0  0  0  0  0  0  0  0  0  0  0
    4.1327   -1.8634    1.1992 H   0  0  0  0  0  0  0  0  0  0  0  0
    5.4299    1.6742   -0.9083 H   0  0  0  0  0  0  0  0  0  0  0  0
    6.4857   -2.4362    1.6653 H   0  0  0  0  0  0  0  0  0  0  0  0
    7.7768    1.0848   -0.4324 H   0  0  0  0  0  0  0  0  0  0  0  0
    8.3132   -0.9680    0.8533 H   0  0  0  0  0  0  0  0  0  0  0  0
  1 13  1  0  0  0  0
  1 22  1  0  0  0  0
  2 12  2  0  0  0  0
  3 13  2  0  0  0  0
  4  7  1  0  0  0  0
  4  9  1  0  0  0  0
  4 12  1  0  0  0  0
  5 10  1  0  0  0  0
  5 14  1  0  0  0  0
  5 33  1  0  0  0  0
  6 11  1  0  0  0  0
  6 14  2  0  0  0  0
  7  8  1  0  0  0  0
  7 13  1  0  0  0  0
  7 28  1  0  0  0  0
  8 11  1  0  0  0  0
  8 29  1  0  0  0  0
  8 30  1  0  0  0  0
  9 10  1  0  0  0  0
  9 31  1  0  0  0  0
  9 32  1  0  0  0  0
 10 11  2  0  0  0  0
 12 15  1  0  0  0  0
 14 34  1  0  0  0  0
 15 16  2  0  0  0  0
 15 17  1  0  0  0  0
 16 19  1  0  0  0  0
 16 35  1  0  0  0  0
 17 20  2  0  0  0  0
 17 36  1  0  0  0  0
 18 19  2  0  0  0  0
 18 20  1  0  0  0  0
 18 21  1  0  0  0  0
 19 37  1  0  0  0  0
 20 38  1  0  0  0  0
 21 23  2  0  0  0  0
 21 24  1  0  0  0  0
 22 39  1  0  0  0  0
 22 40  1  0  0  0  0
 22 41  1  0  0  0  0
 23 25  1  0  0  0  0
 23 42  1  0  0  0  0
 24 26  2  0  0  0  0
 24 43  1  0  0  0  0
 25 27  2  0  0  0  0
 25 44  1  0  0  0  0
 26 27  1  0  0  0  0
 26 45  1  0  0  0  0
 27 46  1  0  0  0  0
M  END
> <PUBCHEM_COMPOUND_CID>
26761802

> <PUBCHEM_CONFORMER_RMSD>
0.8

> <PUBCHEM_CONFORMER_DIVERSEORDER>
1
10
3
6
9
4
7
5
11
8
2

> <PUBCHEM_MMFF94_PARTIAL_CHARGES>
36
1 -0.43
10 -0.33
11 0.05
12 0.54
13 0.66
14 0.04
15 0.09
16 -0.15
17 -0.15
19 -0.15
2 -0.57
20 -0.15
22 0.28
23 -0.15
24 -0.15
25 -0.15
26 -0.15
27 -0.15
3 -0.57
33 0.27
34 0.15
35 0.15
36 0.15
37 0.15
38 0.15
4 -0.66
42 0.15
43 0.15
44 0.15
45 0.15
46 0.15
5 0.03
6 -0.57
7 0.36
8 0.18
9 0.48

> <PUBCHEM_EFFECTIVE_ROTOR_COUNT>
5.8

> <PUBCHEM_PHARMACOPHORE_FEATURES>
8
1 2 acceptor
1 3 acceptor
1 5 donor
3 5 6 14 cation
5 5 6 10 11 14 rings
6 15 16 17 18 19 20 rings
6 21 23 24 25 26 27 rings
6 4 7 8 9 10 11 rings

> <PUBCHEM_HEAVY_ATOM_COUNT>
27

> <PUBCHEM_ATOM_DEF_STEREO_COUNT>
1

> <PUBCHEM_ATOM_UDEF_STEREO_COUNT>
0

> <PUBCHEM_BOND_DEF_STEREO_COUNT>
0

> <PUBCHEM_BOND_UDEF_STEREO_COUNT>
0

> <PUBCHEM_ISOTOPIC_ATOM_COUNT>
0

> <PUBCHEM_COMPONENT_COUNT>
1

> <PUBCHEM_CACTVS_TAUTO_COUNT>
2

> <PUBCHEM_CONFORMER_ID>
01985A4A00000001

> <PUBCHEM_MMFF94_ENERGY>
80.2676

> <PUBCHEM_FEATURE_SELFOVERLAP>
40.7

> <PUBCHEM_SHAPE_FINGERPRINT>
10291535 26 16773524278737074905
10319926 262 18201147823866309536
10595046 47 18113616807713813116
11036077 4 18411703171367742931
11315181 36 18411417345035435764
11524674 6 17775560949014768830
11545043 162 18059852896042818346
117089 54 17537166117749794283
11796584 16 18336260168159094222
12107183 9 18337957787704507288
12293681 4 18060425681181782049
12596602 18 18272929441102779216
12616971 3 17530974587594949068
12633257 1 18412266107972428320
12760667 363 18266176317847495671
12988421 55 17984150258252086281
13540713 5 18117294742311560973
13583140 156 16773794796597993977
14068700 675 18198900508347037015
14178342 30 18339936969322754143
14251764 18 18412545401047554845
14844126 61 18272650190719251791
14856354 85 18342460331049348492
14866123 147 18409733989256352547
15021287 119 17240490199484212741
15183329 4 18186513307295690562
15250474 111 17968923220423792194
15348495 7 18272364287599351120
15361156 5 18041011622335675110
15537594 2 17676485008639562530
15799311 1 18335428928841831966
16994733 274 15697163903756126145
17492 89 17901385911660472719
17780758 139 18413388735198301673
17857418 61 18186513311648465486
19141452 34 18335706013633842421
21033648 29 16988551403867574834
21130935 74 18413102862993140866
21236236 1 18410291427964664986
220451 1 18187651284808350716
22122407 14 16415477151435545744
22950370 63 18334855026737532692
23466295 7 17169844503294618755
23522609 53 18117304552186059804
23559900 14 18264757938656083573
25147074 1 18116167721122712069
255183 313 18190468160442721229
3004659 81 17531235219116561838
312425 54 18411974737918199130
335352 9 18261384586196606535
3663271 9 18411979174798724720
4073 2 18272376360715399054
4409770 3 17969489417066729325
484985 159 18335139834783354291
5104073 3 18342452677697163008
531348 171 17386830734601274470
5486654 36 18335425707231050049
559249 180 18187640306434501559
563151 74 16415213230216935623
5718773 13 18195239138521220199
58260988 114 17531541978993103651
5924683 9 18409165532273571031
59755656 520 18409164381960755401
6009941 240 18060421270671978704
6691757 9 18272656727869862555
7226269 152 17988079980996159697
7495541 125 18340482357498039976
7970288 3 17972597963644768515
9981440 41 16845017797571726205

> <PUBCHEM_SHAPE_MULTIPOLES>
523.1
16.46
2.93
1.37
22.46
1.97
-0.02
2.93
-4.89
-5.97
-0.74
-0.66
-0.61
-1.95

> <PUBCHEM_SHAPE_SELFOVERLAP>
1153.476

> <PUBCHEM_SHAPE_VOLUME>
280.1

> <PUBCHEM_COORDINATE_TYPE>
2
5
10

$$$$
