51137783
  -OEChem-12032416203D

 50 53  0     1  0  0  0  0  0999 V2000
   -4.1946    0.5301   -1.3438 S   0  0  0  0  0  0  0  0  0  0  0  0
    0.2937   -1.5650   -0.0675 O   0  0  0  0  0  0  0  0  0  0  0  0
   -5.5438    0.8764   -0.9346 O   0  0  0  0  0  0  0  0  0  0  0  0
   -3.7818    0.6949   -2.7259 O   0  0  0  0  0  0  0  0  0  0  0  0
   -3.8313   -1.0428   -0.8294 N   0  0  1  0  0  0  0  0  0  0  0  0
   -0.8091   -1.3446    1.8662 N   0  0  0  0  0  0  0  0  0  0  0  0
    0.4553   -0.8112    2.0325 N   0  0  0  0  0  0  0  0  0  0  0  0
    6.2678    0.4797   -0.7273 N   0  0  0  0  0  0  0  0  0  0  0  0
   -1.9963   -2.4487   -0.1189 C   0  0  1  0  0  0  0  0  0  0  0  0
   -3.2162   -2.6604    0.7803 C   0  0  0  0  0  0  0  0  0  0  0  0
   -2.5834   -1.6948   -1.3239 C   0  0  0  0  0  0  0  0  0  0  0  0
   -4.0246   -1.3836    0.6007 C   0  0  0  0  0  0  0  0  0  0  0  0
   -0.8588   -1.7722    0.6263 C   0  0  0  0  0  0  0  0  0  0  0  0
   -3.0791    1.4638   -0.3391 C   0  0  0  0  0  0  0  0  0  0  0  0
    1.0634   -0.9616    0.8791 C   0  0  0  0  0  0  0  0  0  0  0  0
   -1.7939    1.7466   -0.8013 C   0  0  0  0  0  0  0  0  0  0  0  0
   -3.4845    1.9181    0.9159 C   0  0  0  0  0  0  0  0  0  0  0  0
    2.3882   -0.5948    0.4702 C   0  0  0  0  0  0  0  0  0  0  0  0
   -0.9139    2.4836   -0.0087 C   0  0  0  0  0  0  0  0  0  0  0  0
   -2.6047    2.6552    1.7085 C   0  0  0  0  0  0  0  0  0  0  0  0
   -1.3194    2.9378    1.2462 C   0  0  0  0  0  0  0  0  0  0  0  0
    3.2492    0.0294    1.3730 C   0  0  0  0  0  0  0  0  0  0  0  0
    2.8160   -0.8627   -0.8302 C   0  0  0  0  0  0  0  0  0  0  0  0
    4.9654    0.1182   -0.3251 C   0  0  0  0  0  0  0  0  0  0  0  0
    4.5377    0.3859    0.9754 C   0  0  0  0  0  0  0  0  0  0  0  0
    4.1045   -0.5061   -1.2278 C   0  0  0  0  0  0  0  0  0  0  0  0
    6.7247    0.1991   -2.0739 C   0  0  0  0  0  0  0  0  0  0  0  0
    7.1694    1.1297    0.2030 C   0  0  0  0  0  0  0  0  0  0  0  0
   -1.6048   -3.4195   -0.4485 H   0  0  0  0  0  0  0  0  0  0  0  0
   -3.7989   -3.5110    0.4029 H   0  0  0  0  0  0  0  0  0  0  0  0
   -2.9820   -2.8617    1.8302 H   0  0  0  0  0  0  0  0  0  0  0  0
   -2.8760   -2.4029   -2.1077 H   0  0  0  0  0  0  0  0  0  0  0  0
   -1.8699   -0.9868   -1.7508 H   0  0  0  0  0  0  0  0  0  0  0  0
   -3.6325   -0.6239    1.2751 H   0  0  0  0  0  0  0  0  0  0  0  0
   -5.0830   -1.5503    0.8186 H   0  0  0  0  0  0  0  0  0  0  0  0
   -1.4550    1.4044   -1.7747 H   0  0  0  0  0  0  0  0  0  0  0  0
   -4.4810    1.7120    1.2964 H   0  0  0  0  0  0  0  0  0  0  0  0
    0.0877    2.7019   -0.3676 H   0  0  0  0  0  0  0  0  0  0  0  0
   -2.9201    3.0089    2.6858 H   0  0  0  0  0  0  0  0  0  0  0  0
   -0.6338    3.5106    1.8638 H   0  0  0  0  0  0  0  0  0  0  0  0
    2.9362    0.2477    2.3913 H   0  0  0  0  0  0  0  0  0  0  0  0
    2.1738   -1.3470   -1.5614 H   0  0  0  0  0  0  0  0  0  0  0  0
    5.1691    0.8692    1.7144 H   0  0  0  0  0  0  0  0  0  0  0  0
    4.3899   -0.7352   -2.2498 H   0  0  0  0  0  0  0  0  0  0  0  0
    6.7153   -0.8772   -2.2790 H   0  0  0  0  0  0  0  0  0  0  0  0
    6.1108    0.7203   -2.8169 H   0  0  0  0  0  0  0  0  0  0  0  0
    7.7554    0.5366   -2.2303 H   0  0  0  0  0  0  0  0  0  0  0  0
    6.7636    2.0891    0.5430 H   0  0  0  0  0  0  0  0  0  0  0  0
    7.3742    0.4897    1.0685 H   0  0  0  0  0  0  0  0  0  0  0  0
    8.1388    1.3485   -0.2586 H   0  0  0  0  0  0  0  0  0  0  0  0
  1  3  2  0  0  0  0
  1  4  2  0  0  0  0
  1  5  1  0  0  0  0
  1 14  1  0  0  0  0
  2 13  1  0  0  0  0
  2 15  1  0  0  0  0
  5 11  1  0  0  0  0
  5 12  1  0  0  0  0
  6  7  1  0  0  0  0
  6 13  2  0  0  0  0
  7 15  2  0  0  0  0
  8 24  1  0  0  0  0
  8 27  1  0  0  0  0
  8 28  1  0  0  0  0
  9 10  1  0  0  0  0
  9 11  1  0  0  0  0
  9 13  1  0  0  0  0
  9 29  1  0  0  0  0
 10 12  1  0  0  0  0
 10 30  1  0  0  0  0
 10 31  1  0  0  0  0
 11 32  1  0  0  0  0
 11 33  1  0  0  0  0
 12 34  1  0  0  0  0
 12 35  1  0  0  0  0
 14 16  2  0  0  0  0
 14 17  1  0  0  0  0
 15 18  1  0  0  0  0
 16 19  1  0  0  0  0
 16 36  1  0  0  0  0
 17 20  2  0  0  0  0
 17 37  1  0  0  0  0
 18 22  2  0  0  0  0
 18 23  1  0  0  0  0
 19 21  2  0  0  0  0
 19 38  1  0  0  0  0
 20 21  1  0  0  0  0
 20 39  1  0  0  0  0
 21 40  1  0  0  0  0
 22 25  1  0  0  0  0
 22 41  1  0  0  0  0
 23 26  2  0  0  0  0
 23 42  1  0  0  0  0
 24 25  2  0  0  0  0
 24 26  1  0  0  0  0
 25 43  1  0  0  0  0
 26 44  1  0  0  0  0
 27 45  1  0  0  0  0
 27 46  1  0  0  0  0
 27 47  1  0  0  0  0
 28 48  1  0  0  0  0
 28 49  1  0  0  0  0
 28 50  1  0  0  0  0
M  END
> <PUBCHEM_COMPOUND_CID>
51137783

> <PUBCHEM_CONFORMER_RMSD>
0.8

> <PUBCHEM_CONFORMER_DIVERSEORDER>
1
64
94
30
27
39
69
43
2
48
18
100
68
53
92
52
8
80
9
13
78
98
49
66
63
54
75
31
29
50
44
76
72
14
45
71
59
65
67
83
26
7
96
16
46
99
22
81
10
3
19
79
24
47
56
95
74
33
91
35
5
82
97
25
77
88
41
32
37
34
51
42
101
62
70
61
86
93
89
23
6
4
85
60
40
17
36
11
73
87
38
20
90
58
57
12
21
15
84
28
55

> <PUBCHEM_MMFF94_PARTIAL_CHARGES>
36
1 1.45
11 0.36
12 0.36
13 0.3
14 -0.01
15 0.43
16 -0.15
17 -0.15
18 0.05
19 -0.15
2 -0.28
20 -0.15
21 -0.15
22 -0.15
23 -0.15
24 0.1
25 -0.15
26 -0.15
27 0.37
28 0.37
3 -0.65
36 0.15
37 0.15
38 0.15
39 0.15
4 -0.65
40 0.15
41 0.15
42 0.15
43 0.15
44 0.15
5 -0.85
6 -0.34
7 -0.34
8 -0.84
9 0.18

> <PUBCHEM_EFFECTIVE_ROTOR_COUNT>
6

> <PUBCHEM_PHARMACOPHORE_FEATURES>
7
1 3 acceptor
1 4 acceptor
1 8 cation
5 2 6 7 13 15 rings
5 5 9 10 11 12 rings
6 14 16 17 19 20 21 rings
6 18 22 23 24 25 26 rings

> <PUBCHEM_HEAVY_ATOM_COUNT>
28

> <PUBCHEM_ATOM_DEF_STEREO_COUNT>
1

> <PUBCHEM_ATOM_UDEF_STEREO_COUNT>
0

> <PUBCHEM_BOND_DEF_STEREO_COUNT>
0

> <PUBCHEM_BOND_UDEF_STEREO_COUNT>
0

> <PUBCHEM_ISOTOPIC_ATOM_COUNT>
0

> <PUBCHEM_COMPONENT_COUNT>
1

> <PUBCHEM_CACTVS_TAUTO_COUNT>
1

> <PUBCHEM_CONFORMER_ID>
030C4CF700000001

> <PUBCHEM_MMFF94_ENERGY>
67.1748

> <PUBCHEM_FEATURE_SELFOVERLAP>
35.54

> <PUBCHEM_SHAPE_FINGERPRINT>
10290309 65 18260544477577374467
10291535 26 18411705404344613530
10429389 16 17773615827530618524
10498660 4 18337099095150941339
10670039 82 18412266108420502900
10730089 173 18334575754699100254
10871710 139 18268988683886575945
11607047 141 17055253466663650175
12156800 1 17339334092077870121
12788726 201 18200866267486063369
13583140 156 16226056582479316712
13761468 95 18190743029421562396
13947920 75 18408884027875498640
13994607 96 17749400255948462881
14251757 5 18336549429252298306
14713325 29 18341344330889395371
14840074 17 18041564637629171525
14910302 57 16414895518210680487
14931854 50 18340754962966358413
15003188 33 18199754652804120318
15082195 135 18336559295926126308
15183329 4 18334860468725133286
15575132 122 18189613839770613893
17357779 13 18131063874390206721
17492 54 18189035552768026925
19958102 18 18059866039022974574
20101258 96 17902234743259141171
20578428 11 12745950398336369195
20775438 99 16543790425076134135
21236236 1 18411704288011728016
23198884 109 18131073701676384220
23557571 272 18341618152328985690
23559900 14 18269546294784302376
354706 132 18270127808209090136
3610482 184 18198927845777043412
4112364 45 13626586661475476685
469060 322 17241060872168302403
484989 97 18045209687002107719
5104073 3 14635430597862414944
531348 171 18131357367287454438
563151 74 15068613886480931640
6299153 45 17822560609353507842
7237137 82 18334295404850879318

> <PUBCHEM_SHAPE_MULTIPOLES>
542.54
13.91
2.93
1.9
24.89
0.87
-0.4
2.85
-6.06
-4.12
0.98
-0.37
0.12
0.16

> <PUBCHEM_SHAPE_SELFOVERLAP>
1159.862

> <PUBCHEM_SHAPE_VOLUME>
303.9

> <PUBCHEM_COORDINATE_TYPE>
2
5
10

$$$$
