11911777
  -OEChem-12032416373D

 64 68  0     1  0  0  0  0  0999 V2000
    0.4320    1.7562    1.6908 O   0  0  0  0  0  0  0  0  0  0  0  0
    0.2332    4.1953   -0.2452 O   0  0  0  0  0  0  0  0  0  0  0  0
   -4.2570    2.6044    1.4249 O   0  0  0  0  0  0  0  0  0  0  0  0
    2.6589   -2.8635   -0.2124 O   0  0  0  0  0  0  0  0  0  0  0  0
   -2.3858    1.7188    0.3796 N   0  0  0  0  0  0  0  0  0  0  0  0
    2.5463    2.3840   -1.2187 N   0  0  0  0  0  0  0  0  0  0  0  0
    3.5928    0.4098   -0.5017 N   0  0  0  0  0  0  0  0  0  0  0  0
    3.7587    1.1363   -2.7933 N   0  0  0  0  0  0  0  0  0  0  0  0
   -6.7523   -2.7839   -0.8128 N   0  0  0  0  0  0  0  0  0  0  0  0
   -0.3377    2.8764   -0.2616 C   0  0  1  0  0  0  0  0  0  0  0  0
    0.7069    1.9257    0.2900 C   0  0  1  0  0  0  0  0  0  0  0  0
   -1.4774    2.7846    0.7272 C   0  0  2  0  0  0  0  0  0  0  0  0
    2.0129    2.6597    0.0974 C   0  0  2  0  0  0  0  0  0  0  0  0
   -0.7547    2.4891    2.0295 C   0  0  0  0  0  0  0  0  0  0  0  0
    1.5952    4.1151    0.2003 C   0  0  0  0  0  0  0  0  0  0  0  0
   -3.7189    1.7199    0.7643 C   0  0  0  0  0  0  0  0  0  0  0  0
    3.3222    1.2770   -1.5134 C   0  0  0  0  0  0  0  0  0  0  0  0
   -4.5162    0.5368    0.3496 C   0  0  0  0  0  0  0  0  0  0  0  0
   -4.1392   -0.1574   -0.7813 C   0  0  0  0  0  0  0  0  0  0  0  0
   -5.6076    0.1699    1.1090 C   0  0  0  0  0  0  0  0  0  0  0  0
    4.3519   -0.6578   -0.8242 C   0  0  0  0  0  0  0  0  0  0  0  0
    4.5127    0.0462   -3.0455 C   0  0  0  0  0  0  0  0  0  0  0  0
    4.8444   -0.8938   -2.0914 C   0  0  0  0  0  0  0  0  0  0  0  0
   -4.8873   -1.2686   -1.1704 C   0  0  0  0  0  0  0  0  0  0  0  0
   -6.3558   -0.9413    0.7201 C   0  0  0  0  0  0  0  0  0  0  0  0
   -5.9957   -1.6605   -0.4196 C   0  0  0  0  0  0  0  0  0  0  0  0
    4.6260   -1.5659    0.2638 C   0  0  0  0  0  0  0  0  0  0  0  0
    3.7750   -2.6403    0.5388 C   0  0  0  0  0  0  0  0  0  0  0  0
    5.7619   -1.3655    1.0534 C   0  0  0  0  0  0  0  0  0  0  0  0
   -6.1251   -3.8771   -1.5287 C   0  0  0  0  0  0  0  0  0  0  0  0
   -8.1697   -2.8539   -0.5184 C   0  0  0  0  0  0  0  0  0  0  0  0
    4.0579   -3.5070    1.5946 C   0  0  0  0  0  0  0  0  0  0  0  0
    6.0445   -2.2322    2.1091 C   0  0  0  0  0  0  0  0  0  0  0  0
    5.1926   -3.3029    2.3798 C   0  0  0  0  0  0  0  0  0  0  0  0
    1.4542   -2.2333    0.2162 C   0  0  0  0  0  0  0  0  0  0  0  0
   -0.6189    2.6529   -1.2958 H   0  0  0  0  0  0  0  0  0  0  0  0
    0.6616    0.9352   -0.1730 H   0  0  0  0  0  0  0  0  0  0  0  0
   -2.0448    3.7178    0.8107 H   0  0  0  0  0  0  0  0  0  0  0  0
    2.7586    2.4443    0.8712 H   0  0  0  0  0  0  0  0  0  0  0  0
   -1.3460    1.9089    2.7443 H   0  0  0  0  0  0  0  0  0  0  0  0
   -0.4351    3.4157    2.5187 H   0  0  0  0  0  0  0  0  0  0  0  0
    2.2110    4.7979   -0.3932 H   0  0  0  0  0  0  0  0  0  0  0  0
    1.6148    4.4542    1.2419 H   0  0  0  0  0  0  0  0  0  0  0  0
   -1.9834    0.9005   -0.0656 H   0  0  0  0  0  0  0  0  0  0  0  0
    2.3074    2.9953   -1.9912 H   0  0  0  0  0  0  0  0  0  0  0  0
   -3.3066    0.1370   -1.4119 H   0  0  0  0  0  0  0  0  0  0  0  0
   -5.8962    0.7145    2.0031 H   0  0  0  0  0  0  0  0  0  0  0  0
    4.8541   -0.0542   -4.0702 H   0  0  0  0  0  0  0  0  0  0  0  0
    5.4523   -1.7558   -2.3373 H   0  0  0  0  0  0  0  0  0  0  0  0
   -4.5917   -1.7949   -2.0735 H   0  0  0  0  0  0  0  0  0  0  0  0
   -7.2050   -1.2276    1.3341 H   0  0  0  0  0  0  0  0  0  0  0  0
    6.4374   -0.5356    0.8580 H   0  0  0  0  0  0  0  0  0  0  0  0
   -6.0093   -3.6307   -2.5894 H   0  0  0  0  0  0  0  0  0  0  0  0
   -5.1435   -4.1224   -1.1075 H   0  0  0  0  0  0  0  0  0  0  0  0
   -6.7302   -4.7886   -1.4664 H   0  0  0  0  0  0  0  0  0  0  0  0
   -8.6655   -1.8939   -0.7021 H   0  0  0  0  0  0  0  0  0  0  0  0
   -8.6698   -3.5929   -1.1544 H   0  0  0  0  0  0  0  0  0  0  0  0
   -8.3358   -3.1502    0.5226 H   0  0  0  0  0  0  0  0  0  0  0  0
    3.3993   -4.3438    1.8113 H   0  0  0  0  0  0  0  0  0  0  0  0
    6.9278   -2.0734    2.7207 H   0  0  0  0  0  0  0  0  0  0  0  0
    5.4128   -3.9777    3.2018 H   0  0  0  0  0  0  0  0  0  0  0  0
    0.8032   -2.1063   -0.6530 H   0  0  0  0  0  0  0  0  0  0  0  0
    0.9486   -2.8762    0.9431 H   0  0  0  0  0  0  0  0  0  0  0  0
    1.6383   -1.2522    0.6648 H   0  0  0  0  0  0  0  0  0  0  0  0
  1 11  1  0  0  0  0
  1 14  1  0  0  0  0
  2 10  1  0  0  0  0
  2 15  1  0  0  0  0
  3 16  2  0  0  0  0
  4 28  1  0  0  0  0
  4 35  1  0  0  0  0
  5 12  1  0  0  0  0
  5 16  1  0  0  0  0
  5 44  1  0  0  0  0
  6 13  1  0  0  0  0
  6 17  1  0  0  0  0
  6 45  1  0  0  0  0
  7 17  1  0  0  0  0
  7 21  2  0  0  0  0
  8 17  2  0  0  0  0
  8 22  1  0  0  0  0
  9 26  1  0  0  0  0
  9 30  1  0  0  0  0
  9 31  1  0  0  0  0
 10 11  1  0  0  0  0
 10 12  1  0  0  0  0
 10 36  1  0  0  0  0
 11 13  1  0  0  0  0
 11 37  1  0  0  0  0
 12 14  1  0  0  0  0
 12 38  1  0  0  0  0
 13 15  1  0  0  0  0
 13 39  1  0  0  0  0
 14 40  1  0  0  0  0
 14 41  1  0  0  0  0
 15 42  1  0  0  0  0
 15 43  1  0  0  0  0
 16 18  1  0  0  0  0
 18 19  2  0  0  0  0
 18 20  1  0  0  0  0
 19 24  1  0  0  0  0
 19 46  1  0  0  0  0
 20 25  2  0  0  0  0
 20 47  1  0  0  0  0
 21 23  1  0  0  0  0
 21 27  1  0  0  0  0
 22 23  2  0  0  0  0
 22 48  1  0  0  0  0
 23 49  1  0  0  0  0
 24 26  2  0  0  0  0
 24 50  1  0  0  0  0
 25 26  1  0  0  0  0
 25 51  1  0  0  0  0
 27 28  1  0  0  0  0
 27 29  2  0  0  0  0
 28 32  2  0  0  0  0
 29 33  1  0  0  0  0
 29 52  1  0  0  0  0
 30 53  1  0  0  0  0
 30 54  1  0  0  0  0
 30 55  1  0  0  0  0
 31 56  1  0  0  0  0
 31 57  1  0  0  0  0
 31 58  1  0  0  0  0
 32 34  1  0  0  0  0
 32 59  1  0  0  0  0
 33 34  2  0  0  0  0
 33 60  1  0  0  0  0
 34 61  1  0  0  0  0
 35 62  1  0  0  0  0
 35 63  1  0  0  0  0
 35 64  1  0  0  0  0
M  END
> <PUBCHEM_COMPOUND_CID>
11911777

> <PUBCHEM_CONFORMER_RMSD>
1

> <PUBCHEM_CONFORMER_DIVERSEORDER>
1
111
26
100
208
196
69
49
180
174
185
166
70
91
177
33
53
136
73
81
28
161
94
145
27
150
48
157
107
212
86
77
20
132
138
120
151
197
160
47
115
133
173
162
41
204
52
189
40
193
203
17
154
7
194
83
167
29
155
106
54
126
202
129
182
34
211
158
18
130
21
186
44
131
143
187
64
66
181
201
93
190
71
183
112
19
199
109
79
24
85
108
43
56
8
89
32
45
134
80
72
124
13
110
6
67
50
99
135
11
30
171
63
114
148
195
87
61
55
206
25
88
12
165
127
146
168
76
144
192
128
92
102
35
210
207
149
39
65
119
95
188
10
147
140
198
170
156
164
205
2
22
141
139
184
51
117
37
191
105
46
42
172
4
113
152
103
101
104
38
62
75
84
60
153
57
125
3
169
14
23
209
90
163
142
58
121
118
175
59
137
9
97
159
176
31
116
200
74
179
178
98
15
82
78
122
96
123
68
5
16
36

> <PUBCHEM_MMFF94_PARTIAL_CHARGES>
46
1 -0.56
10 0.28
11 0.28
12 0.3
13 0.37
14 0.28
15 0.28
16 0.54
17 0.72
18 0.09
19 -0.15
2 -0.56
20 -0.15
21 0.31
22 0.16
23 -0.15
24 -0.15
25 -0.15
26 0.1
28 0.08
29 -0.15
3 -0.57
30 0.37
31 0.37
32 -0.15
33 -0.15
34 -0.15
35 0.28
4 -0.36
44 0.37
45 0.4
46 0.15
47 0.15
48 0.15
49 0.15
5 -0.73
50 0.15
51 0.15
52 0.15
59 0.15
6 -0.87
60 0.15
61 0.15
7 -0.62
8 -0.62
9 -0.84

> <PUBCHEM_EFFECTIVE_ROTOR_COUNT>
9.2

> <PUBCHEM_PHARMACOPHORE_FEATURES>
14
1 1 acceptor
1 2 acceptor
1 3 acceptor
1 4 acceptor
1 5 donor
1 6 donor
1 7 acceptor
1 9 cation
4 6 7 8 17 cation
5 1 10 11 12 14 rings
5 2 10 11 13 15 rings
6 18 19 20 24 25 26 rings
6 27 28 29 32 33 34 rings
6 7 8 17 21 22 23 rings

> <PUBCHEM_HEAVY_ATOM_COUNT>
35

> <PUBCHEM_ATOM_DEF_STEREO_COUNT>
4

> <PUBCHEM_ATOM_UDEF_STEREO_COUNT>
0

> <PUBCHEM_BOND_DEF_STEREO_COUNT>
0

> <PUBCHEM_BOND_UDEF_STEREO_COUNT>
0

> <PUBCHEM_ISOTOPIC_ATOM_COUNT>
0

> <PUBCHEM_COMPONENT_COUNT>
1

> <PUBCHEM_CACTVS_TAUTO_COUNT>
6

> <PUBCHEM_CONFORMER_ID>
00B5C26100000001

> <PUBCHEM_MMFF94_ENERGY>
134.4751

> <PUBCHEM_FEATURE_SELFOVERLAP>
71.755

> <PUBCHEM_SHAPE_FINGERPRINT>
10169797 241 18270411606013274906
10622 236 17824824438906261258
11069576 57 17896055252072031582
11227150 75 17532914044607930626
11607047 403 18268134539540315176
11796584 16 18058463018698598053
11966995 16 18263353854709425791
12559416 39 18129644327960708519
12977781 61 18046592712925035292
131258 38 18410854374119069926
13553639 21 18335147475077221427
13553644 42 18411136962168024223
14068700 675 18342740715220319601
14347332 77 18411702093526435481
15001296 14 18270682111949310487
15250474 111 18338242557147681545
15320291 9 17831578674269690275
15684389 69 18187362100876956314
17134984 74 18263368151573456062
17138139 8 18339658788512035028
17324776 126 17825094918488263434
19026451 147 18334290955576302714
19303781 99 17605842404547002858
19315092 285 18040996202949389230
19841028 212 18127690642633866583
20775438 99 18115866484948458906
208703 8 18273220802461514559
21136928 129 15624218063569756578
21585483 132 18128245878493767527
21792938 131 18340198696610141347
24204213 148 18407763625891266198
24893989 43 17770224069934621839
24983565 74 17628072618886217703
25222932 49 18412829101350237692
2838139 119 12252184138252542189
437795 139 18272364270176531867
439807 62 18333449846698370655
463206 1 18335431118795105392
50009960 94 18268971211347303043
504843 32 17110732718092453668
57527293 21 16667403621904096962
59025328 239 17168714016647365260
613672 6 17845648127821110901
6201460 15 18191862319300805643
6677587 24 16372706286796307526
6697151 62 17916850414494712749

> <PUBCHEM_SHAPE_MULTIPOLES>
671.9
19.11
5.73
2.25
25.76
0.96
0.79
-23.57
1.35
0.2
-1.35
-3.63
-0.51
-6.23

> <PUBCHEM_SHAPE_SELFOVERLAP>
1464.795

> <PUBCHEM_SHAPE_VOLUME>
365

> <PUBCHEM_COORDINATE_TYPE>
2
5
10

$$$$
