11885044
  -OEChem-12032416133D

 79 81  0     1  0  0  0  0  0999 V2000
   -0.3878    3.0474   -0.4362 S   0  0  0  0  0  0  0  0  0  0  0  0
   -7.1815   -0.8858   -0.3840 O   0  0  0  0  0  0  0  0  0  0  0  0
   -7.1677    1.1595    0.8656 O   0  0  0  0  0  0  0  0  0  0  0  0
    1.0093   -1.9244   -1.1894 O   0  0  0  0  0  0  0  0  0  0  0  0
    3.5750    0.6042   -0.6434 O   0  0  0  0  0  0  0  0  0  0  0  0
    0.6227    0.6666   -0.3791 N   0  0  0  0  0  0  0  0  0  0  0  0
    1.7892   -2.2760    0.9715 N   0  0  0  0  0  0  0  0  0  0  0  0
    2.1688    2.4983   -0.6317 N   0  0  0  0  0  0  0  0  0  0  0  0
    4.8216   -4.2176    0.0200 N   0  0  0  0  0  0  0  0  0  0  0  0
   -2.9032   -0.6701    0.4270 C   0  0  2  0  0  0  0  0  0  0  0  0
   -3.6173    0.4930   -0.3932 C   0  0  1  0  0  0  0  0  0  0  0  0
   -5.1924    0.5493   -0.3316 C   0  0  1  0  0  0  0  0  0  0  0  0
   -1.4065   -0.8087   -0.1156 C   0  0  1  0  0  0  0  0  0  0  0  0
   -3.6416   -2.0097    0.1714 C   0  0  0  0  0  0  0  0  0  0  0  0
   -5.7654   -0.8779   -0.5615 C   0  0  1  0  0  0  0  0  0  0  0  0
   -2.9306    1.8678   -0.1456 C   0  0  0  0  0  0  0  0  0  0  0  0
   -5.1501   -1.9276    0.3573 C   0  0  0  0  0  0  0  0  0  0  0  0
   -2.8752   -0.4010    1.9518 C   0  0  0  0  0  0  0  0  0  0  0  0
   -0.7469    0.5410   -0.2370 C   0  0  0  0  0  0  0  0  0  0  0  0
   -5.7612    1.1691    0.9639 C   0  0  0  0  0  0  0  0  0  0  0  0
   -5.7132    1.4484   -1.4886 C   0  0  0  0  0  0  0  0  0  0  0  0
   -1.4507    1.7277   -0.2667 C   0  0  0  0  0  0  0  0  0  0  0  0
   -0.5311   -1.7930    0.6718 C   0  0  0  0  0  0  0  0  0  0  0  0
    0.8177   -1.9970    0.0214 C   0  0  0  0  0  0  0  0  0  0  0  0
    0.9258    1.9422   -0.4847 C   0  0  0  0  0  0  0  0  0  0  0  0
    3.1739   -2.5194    0.6371 C   0  0  0  0  0  0  0  0  0  0  0  0
    3.3956    1.8175   -0.7015 C   0  0  0  0  0  0  0  0  0  0  0  0
    3.4276   -3.9980    0.3831 C   0  0  0  0  0  0  0  0  0  0  0  0
    4.5834    2.7594   -0.8601 C   0  0  0  0  0  0  0  0  0  0  0  0
    5.2727    3.1621    0.4655 C   0  0  0  0  0  0  0  0  0  0  0  0
    5.7837    1.9245    1.2220 C   0  0  0  0  0  0  0  0  0  0  0  0
    6.4805    4.0563    0.1220 C   0  0  0  0  0  0  0  0  0  0  0  0
    4.3240    3.9576    1.3769 C   0  0  0  0  0  0  0  0  0  0  0  0
    5.1724   -3.4442   -1.1729 C   0  0  0  0  0  0  0  0  0  0  0  0
    5.0786   -5.6414   -0.2055 C   0  0  0  0  0  0  0  0  0  0  0  0
   -3.3998    0.2449   -1.4467 H   0  0  0  0  0  0  0  0  0  0  0  0
   -1.4779   -1.1832   -1.1484 H   0  0  0  0  0  0  0  0  0  0  0  0
   -3.4424   -2.3483   -0.8539 H   0  0  0  0  0  0  0  0  0  0  0  0
   -3.2554   -2.7947    0.8322 H   0  0  0  0  0  0  0  0  0  0  0  0
   -5.5734   -1.1869   -1.5979 H   0  0  0  0  0  0  0  0  0  0  0  0
   -3.2835    2.6035   -0.8759 H   0  0  0  0  0  0  0  0  0  0  0  0
   -3.1711    2.2501    0.8521 H   0  0  0  0  0  0  0  0  0  0  0  0
   -5.5968   -2.9052    0.1349 H   0  0  0  0  0  0  0  0  0  0  0  0
   -5.4108   -1.7294    1.4029 H   0  0  0  0  0  0  0  0  0  0  0  0
   -2.4148   -1.2352    2.4927 H   0  0  0  0  0  0  0  0  0  0  0  0
   -3.8671   -0.3025    2.3855 H   0  0  0  0  0  0  0  0  0  0  0  0
   -2.3107    0.4996    2.2090 H   0  0  0  0  0  0  0  0  0  0  0  0
   -5.4260    2.1986    1.1241 H   0  0  0  0  0  0  0  0  0  0  0  0
   -5.5151    0.5950    1.8526 H   0  0  0  0  0  0  0  0  0  0  0  0
   -5.4507    2.5001   -1.3321 H   0  0  0  0  0  0  0  0  0  0  0  0
   -5.2784    1.1401   -2.4467 H   0  0  0  0  0  0  0  0  0  0  0  0
   -6.7996    1.4107   -1.6140 H   0  0  0  0  0  0  0  0  0  0  0  0
   -0.3764   -1.4236    1.6922 H   0  0  0  0  0  0  0  0  0  0  0  0
   -1.0028   -2.7787    0.7378 H   0  0  0  0  0  0  0  0  0  0  0  0
   -7.5851   -0.4790   -1.1683 H   0  0  0  0  0  0  0  0  0  0  0  0
   -7.4443    1.9768    0.4177 H   0  0  0  0  0  0  0  0  0  0  0  0
    1.5301   -2.3379    1.9516 H   0  0  0  0  0  0  0  0  0  0  0  0
    2.1779    3.5131   -0.6919 H   0  0  0  0  0  0  0  0  0  0  0  0
    3.7800   -2.1523    1.4725 H   0  0  0  0  0  0  0  0  0  0  0  0
    3.3870   -1.9072   -0.2408 H   0  0  0  0  0  0  0  0  0  0  0  0
    3.1869   -4.5571    1.2967 H   0  0  0  0  0  0  0  0  0  0  0  0
    2.7495   -4.3668   -0.3987 H   0  0  0  0  0  0  0  0  0  0  0  0
    5.3010    2.2556   -1.5214 H   0  0  0  0  0  0  0  0  0  0  0  0
    4.2568    3.6567   -1.4020 H   0  0  0  0  0  0  0  0  0  0  0  0
    4.9594    1.2923    1.5686 H   0  0  0  0  0  0  0  0  0  0  0  0
    6.3621    2.2147    2.1068 H   0  0  0  0  0  0  0  0  0  0  0  0
    6.4339    1.3130    0.5865 H   0  0  0  0  0  0  0  0  0  0  0  0
    6.1644    4.9602   -0.4110 H   0  0  0  0  0  0  0  0  0  0  0  0
    7.0115    4.3729    1.0269 H   0  0  0  0  0  0  0  0  0  0  0  0
    7.1975    3.5260   -0.5149 H   0  0  0  0  0  0  0  0  0  0  0  0
    4.8467    4.3203    2.2695 H   0  0  0  0  0  0  0  0  0  0  0  0
    3.4852    3.3437    1.7211 H   0  0  0  0  0  0  0  0  0  0  0  0
    3.9134    4.8294    0.8555 H   0  0  0  0  0  0  0  0  0  0  0  0
    4.4556   -3.5833   -1.9905 H   0  0  0  0  0  0  0  0  0  0  0  0
    6.1596   -3.7452   -1.5453 H   0  0  0  0  0  0  0  0  0  0  0  0
    5.2737   -2.3769   -0.9534 H   0  0  0  0  0  0  0  0  0  0  0  0
    6.1399   -5.8132   -0.4169 H   0  0  0  0  0  0  0  0  0  0  0  0
    4.8416   -6.2220    0.6931 H   0  0  0  0  0  0  0  0  0  0  0  0
    4.4904   -6.0406   -1.0399 H   0  0  0  0  0  0  0  0  0  0  0  0
  1 22  1  0  0  0  0
  1 25  1  0  0  0  0
  2 15  1  0  0  0  0
  2 55  1  0  0  0  0
  3 20  1  0  0  0  0
  3 56  1  0  0  0  0
  4 24  2  0  0  0  0
  5 27  2  0  0  0  0
  6 19  1  0  0  0  0
  6 25  2  0  0  0  0
  7 24  1  0  0  0  0
  7 26  1  0  0  0  0
  7 57  1  0  0  0  0
  8 25  1  0  0  0  0
  8 27  1  0  0  0  0
  8 58  1  0  0  0  0
  9 28  1  0  0  0  0
  9 34  1  0  0  0  0
  9 35  1  0  0  0  0
 10 11  1  0  0  0  0
 10 13  1  0  0  0  0
 10 14  1  0  0  0  0
 10 18  1  0  0  0  0
 11 12  1  0  0  0  0
 11 16  1  0  0  0  0
 11 36  1  0  0  0  0
 12 15  1  0  0  0  0
 12 20  1  0  0  0  0
 12 21  1  0  0  0  0
 13 19  1  0  0  0  0
 13 23  1  0  0  0  0
 13 37  1  0  0  0  0
 14 17  1  0  0  0  0
 14 38  1  0  0  0  0
 14 39  1  0  0  0  0
 15 17  1  0  0  0  0
 15 40  1  0  0  0  0
 16 22  1  0  0  0  0
 16 41  1  0  0  0  0
 16 42  1  0  0  0  0
 17 43  1  0  0  0  0
 17 44  1  0  0  0  0
 18 45  1  0  0  0  0
 18 46  1  0  0  0  0
 18 47  1  0  0  0  0
 19 22  2  0  0  0  0
 20 48  1  0  0  0  0
 20 49  1  0  0  0  0
 21 50  1  0  0  0  0
 21 51  1  0  0  0  0
 21 52  1  0  0  0  0
 23 24  1  0  0  0  0
 23 53  1  0  0  0  0
 23 54  1  0  0  0  0
 26 28  1  0  0  0  0
 26 59  1  0  0  0  0
 26 60  1  0  0  0  0
 27 29  1  0  0  0  0
 28 61  1  0  0  0  0
 28 62  1  0  0  0  0
 29 30  1  0  0  0  0
 29 63  1  0  0  0  0
 29 64  1  0  0  0  0
 30 31  1  0  0  0  0
 30 32  1  0  0  0  0
 30 33  1  0  0  0  0
 31 65  1  0  0  0  0
 31 66  1  0  0  0  0
 31 67  1  0  0  0  0
 32 68  1  0  0  0  0
 32 69  1  0  0  0  0
 32 70  1  0  0  0  0
 33 71  1  0  0  0  0
 33 72  1  0  0  0  0
 33 73  1  0  0  0  0
 34 74  1  0  0  0  0
 34 75  1  0  0  0  0
 34 76  1  0  0  0  0
 35 77  1  0  0  0  0
 35 78  1  0  0  0  0
 35 79  1  0  0  0  0
M  END
> <PUBCHEM_COMPOUND_CID>
11885044

> <PUBCHEM_CONFORMER_RMSD>
1.2

> <PUBCHEM_CONFORMER_DIVERSEORDER>
1
22
16
4
17
5
19
18
20
11
2
9
13
15
21
10
7
23
12
6
14
3
8

> <PUBCHEM_MMFF94_PARTIAL_CHARGES>
28
1 -0.08
13 0.18
15 0.28
16 0.18
19 0.05
2 -0.68
20 0.28
22 -0.14
23 0.06
24 0.57
25 0.44
26 0.3
27 0.57
28 0.27
29 0.06
3 -0.68
34 0.27
35 0.27
4 -0.57
5 -0.57
55 0.4
56 0.4
57 0.37
58 0.37
6 -0.57
7 -0.73
8 -0.49
9 -0.81

> <PUBCHEM_EFFECTIVE_ROTOR_COUNT>
12.2

> <PUBCHEM_PHARMACOPHORE_FEATURES>
13
1 2 acceptor
1 2 donor
1 3 acceptor
1 3 donor
1 4 acceptor
1 5 acceptor
1 7 donor
1 8 donor
1 9 cation
4 30 31 32 33 hydrophobe
5 1 6 19 22 25 rings
6 10 11 12 14 15 17 rings
6 10 11 13 16 19 22 rings

> <PUBCHEM_HEAVY_ATOM_COUNT>
35

> <PUBCHEM_ATOM_DEF_STEREO_COUNT>
5

> <PUBCHEM_ATOM_UDEF_STEREO_COUNT>
0

> <PUBCHEM_BOND_DEF_STEREO_COUNT>
0

> <PUBCHEM_BOND_UDEF_STEREO_COUNT>
0

> <PUBCHEM_ISOTOPIC_ATOM_COUNT>
0

> <PUBCHEM_COMPONENT_COUNT>
1

> <PUBCHEM_CACTVS_TAUTO_COUNT>
6

> <PUBCHEM_CONFORMER_ID>
00B559F400000001

> <PUBCHEM_MMFF94_ENERGY>
107.1987

> <PUBCHEM_FEATURE_SELFOVERLAP>
66.116

> <PUBCHEM_SHAPE_FINGERPRINT>
10050765 1 18338232657538500573
10906281 52 18114758138705264681
1100329 8 17905328420707231377
11135926 11 18337102458047420813
11719270 70 18335978783244892868
12166972 35 18199748033784724786
12422481 6 17822556292294423512
12741549 16 17699557053510837810
12788726 201 17609777500675322091
12977781 61 17968678114560361362
13140716 1 18335149657410171771
13533116 47 18410577258201672764
13540713 4 18186243918388287475
14068700 675 18195526991365479362
14466204 15 18262796405828459197
14790565 3 18119251902747011181
15183329 4 17968657245509454677
15351339 4 18189912924962505622
15400415 2 18122342656246032868
15840311 113 18334860468772404733
15927050 60 18268992162641339622
15968369 26 18041572454675073334
16067689 302 18336266860130104603
20028762 73 17764595712787803550
20642791 35 18261672562983689003
20721686 56 18334299725973393554
22311459 1 18193558007143402303
23559900 14 18337384929461922467
244849 19 17823157716564766395
249999 5 18410853266106820250
32027 91 18265046934009383350
3411729 13 18334290998293438162
4017518 198 18267029547860680116
404807 14 17908146469367755314
4093350 32 17704081684928132116
4144715 1 18260272958223651075
5104073 3 18334863814335365147
5171179 24 18265049124822550928
5265222 85 17977108191065825772
5385378 56 18409733979864473513
5776283 40 18337968887292112564
59755656 215 18408889572335607556
6669772 16 18339644546627445398
6700243 42 17268086649194986534
9981440 41 18189901005072239019

> <PUBCHEM_SHAPE_MULTIPOLES>
680.73
17.14
6.41
1.17
7.99
5.67
0.2
-3.37
0.64
-17.6
0.02
0.06
-0.23
1.55

> <PUBCHEM_SHAPE_SELFOVERLAP>
1390.813

> <PUBCHEM_SHAPE_VOLUME>
399.5

> <PUBCHEM_COORDINATE_TYPE>
2
5
10

$$$$
