11867036
  -OEChem-12032416363D

 63 67  0     1  0  0  0  0  0999 V2000
   -0.3287    3.1589    0.2891 S   0  0  0  0  0  0  0  0  0  0  0  0
    4.9766    3.1241   -0.2011 S   0  0  0  0  0  0  0  0  0  0  0  0
   -6.6769   -1.3604   -0.6611 O   0  0  0  0  0  0  0  0  0  0  0  0
   -6.8675    0.3411    1.0161 O   0  0  0  0  0  0  0  0  0  0  0  0
    1.5566   -1.3427   -1.5365 O   0  0  0  0  0  0  0  0  0  0  0  0
    0.9238    0.9430   -0.1729 N   0  0  0  0  0  0  0  0  0  0  0  0
    2.3875   -2.1009    0.5256 N   0  0  0  0  0  0  0  0  0  0  0  0
   -2.4390   -0.8953    0.2512 C   0  0  2  0  0  0  0  0  0  0  0  0
   -3.2752    0.3431   -0.2987 C   0  0  1  0  0  0  0  0  0  0  0  0
   -4.8473    0.2223   -0.2533 C   0  0  1  0  0  0  0  0  0  0  0  0
   -0.9395   -0.7539   -0.2827 C   0  0  1  0  0  0  0  0  0  0  0  0
   -3.0360   -2.2114   -0.3115 C   0  0  0  0  0  0  0  0  0  0  0  0
   -5.2704   -1.1675   -0.8078 C   0  0  1  0  0  0  0  0  0  0  0  0
   -2.7334    1.6898    0.2633 C   0  0  0  0  0  0  0  0  0  0  0  0
   -4.5437   -2.3284   -0.1380 C   0  0  0  0  0  0  0  0  0  0  0  0
   -2.4295   -0.9753    1.7977 C   0  0  0  0  0  0  0  0  0  0  0  0
   -0.4244    0.6489   -0.0863 C   0  0  0  0  0  0  0  0  0  0  0  0
   -5.4690    0.4725    1.1384 C   0  0  0  0  0  0  0  0  0  0  0  0
   -5.4658    1.3007   -1.1874 C   0  0  0  0  0  0  0  0  0  0  0  0
   -1.2478    1.7331    0.1393 C   0  0  0  0  0  0  0  0  0  0  0  0
    0.0383   -1.7951    0.2783 C   0  0  0  0  0  0  0  0  0  0  0  0
    1.4021   -1.7096   -0.3764 C   0  0  0  0  0  0  0  0  0  0  0  0
    1.0922    2.2338    0.0161 C   0  0  0  0  0  0  0  0  0  0  0  0
    2.4336    2.8574   -0.0070 C   0  0  0  0  0  0  0  0  0  0  0  0
    3.7840   -2.1616    0.3050 C   0  0  0  0  0  0  0  0  0  0  0  0
    2.6959    4.2414    0.1861 C   0  0  0  0  0  0  0  0  0  0  0  0
    3.5807    2.1324   -0.2278 C   0  0  0  0  0  0  0  0  0  0  0  0
    4.0415    4.5253    0.1060 C   0  0  0  0  0  0  0  0  0  0  0  0
    4.6145   -2.5794    1.3317 C   0  0  0  0  0  0  0  0  0  0  0  0
    4.2908   -1.8024   -0.9330 C   0  0  0  0  0  0  0  0  0  0  0  0
    5.9910   -2.6397    1.1144 C   0  0  0  0  0  0  0  0  0  0  0  0
    5.6674   -1.8628   -1.1502 C   0  0  0  0  0  0  0  0  0  0  0  0
    6.5174   -2.2815   -0.1265 C   0  0  0  0  0  0  0  0  0  0  0  0
   -3.0399    0.3624   -1.3772 H   0  0  0  0  0  0  0  0  0  0  0  0
   -0.9787   -0.8913   -1.3743 H   0  0  0  0  0  0  0  0  0  0  0  0
   -2.5662   -3.0813    0.1624 H   0  0  0  0  0  0  0  0  0  0  0  0
   -2.8092   -2.2880   -1.3832 H   0  0  0  0  0  0  0  0  0  0  0  0
   -5.0539   -1.2137   -1.8837 H   0  0  0  0  0  0  0  0  0  0  0  0
   -3.0059    1.8106    1.3171 H   0  0  0  0  0  0  0  0  0  0  0  0
   -3.1653    2.5309   -0.2889 H   0  0  0  0  0  0  0  0  0  0  0  0
   -4.8878   -3.2713   -0.5821 H   0  0  0  0  0  0  0  0  0  0  0  0
   -4.8169   -2.3987    0.9208 H   0  0  0  0  0  0  0  0  0  0  0  0
   -1.8833   -1.8591    2.1452 H   0  0  0  0  0  0  0  0  0  0  0  0
   -1.9583   -0.1034    2.2604 H   0  0  0  0  0  0  0  0  0  0  0  0
   -3.4235   -1.0775    2.2254 H   0  0  0  0  0  0  0  0  0  0  0  0
   -5.2415    1.4682    1.5316 H   0  0  0  0  0  0  0  0  0  0  0  0
   -5.1592   -0.2588    1.8794 H   0  0  0  0  0  0  0  0  0  0  0  0
   -5.3130    2.3113   -0.7941 H   0  0  0  0  0  0  0  0  0  0  0  0
   -5.0075    1.2624   -2.1826 H   0  0  0  0  0  0  0  0  0  0  0  0
   -6.5432    1.1809   -1.3368 H   0  0  0  0  0  0  0  0  0  0  0  0
   -0.3283   -2.8132    0.1121 H   0  0  0  0  0  0  0  0  0  0  0  0
    0.1542   -1.6500    1.3585 H   0  0  0  0  0  0  0  0  0  0  0  0
   -7.1255   -0.8310   -1.3408 H   0  0  0  0  0  0  0  0  0  0  0  0
   -7.2303    1.2055    0.7588 H   0  0  0  0  0  0  0  0  0  0  0  0
    2.0926   -2.3889    1.4561 H   0  0  0  0  0  0  0  0  0  0  0  0
    1.9597    5.0123    0.3751 H   0  0  0  0  0  0  0  0  0  0  0  0
    3.6826    1.0720   -0.4057 H   0  0  0  0  0  0  0  0  0  0  0  0
    4.5201    5.4885    0.2130 H   0  0  0  0  0  0  0  0  0  0  0  0
    4.2151   -2.8605    2.3020 H   0  0  0  0  0  0  0  0  0  0  0  0
    3.7003   -1.4677   -1.7728 H   0  0  0  0  0  0  0  0  0  0  0  0
    6.6530   -2.9655    1.9115 H   0  0  0  0  0  0  0  0  0  0  0  0
    6.0788   -1.5832   -2.1158 H   0  0  0  0  0  0  0  0  0  0  0  0
    7.5892   -2.3281   -0.2957 H   0  0  0  0  0  0  0  0  0  0  0  0
  1 20  1  0  0  0  0
  1 23  1  0  0  0  0
  2 27  1  0  0  0  0
  2 28  1  0  0  0  0
  3 13  1  0  0  0  0
  3 53  1  0  0  0  0
  4 18  1  0  0  0  0
  4 54  1  0  0  0  0
  5 22  2  0  0  0  0
  6 17  1  0  0  0  0
  6 23  2  0  0  0  0
  7 22  1  0  0  0  0
  7 25  1  0  0  0  0
  7 55  1  0  0  0  0
  8  9  1  0  0  0  0
  8 11  1  0  0  0  0
  8 12  1  0  0  0  0
  8 16  1  0  0  0  0
  9 10  1  0  0  0  0
  9 14  1  0  0  0  0
  9 34  1  0  0  0  0
 10 13  1  0  0  0  0
 10 18  1  0  0  0  0
 10 19  1  0  0  0  0
 11 17  1  0  0  0  0
 11 21  1  0  0  0  0
 11 35  1  0  0  0  0
 12 15  1  0  0  0  0
 12 36  1  0  0  0  0
 12 37  1  0  0  0  0
 13 15  1  0  0  0  0
 13 38  1  0  0  0  0
 14 20  1  0  0  0  0
 14 39  1  0  0  0  0
 14 40  1  0  0  0  0
 15 41  1  0  0  0  0
 15 42  1  0  0  0  0
 16 43  1  0  0  0  0
 16 44  1  0  0  0  0
 16 45  1  0  0  0  0
 17 20  2  0  0  0  0
 18 46  1  0  0  0  0
 18 47  1  0  0  0  0
 19 48  1  0  0  0  0
 19 49  1  0  0  0  0
 19 50  1  0  0  0  0
 21 22  1  0  0  0  0
 21 51  1  0  0  0  0
 21 52  1  0  0  0  0
 23 24  1  0  0  0  0
 24 26  1  0  0  0  0
 24 27  2  0  0  0  0
 25 29  2  0  0  0  0
 25 30  1  0  0  0  0
 26 28  2  0  0  0  0
 26 56  1  0  0  0  0
 27 57  1  0  0  0  0
 28 58  1  0  0  0  0
 29 31  1  0  0  0  0
 29 59  1  0  0  0  0
 30 32  2  0  0  0  0
 30 60  1  0  0  0  0
 31 33  2  0  0  0  0
 31 61  1  0  0  0  0
 32 33  1  0  0  0  0
 32 62  1  0  0  0  0
 33 63  1  0  0  0  0
M  END
> <PUBCHEM_COMPOUND_CID>
11867036

> <PUBCHEM_CONFORMER_RMSD>
1

> <PUBCHEM_CONFORMER_DIVERSEORDER>
1
3
2
4
6
5

> <PUBCHEM_MMFF94_PARTIAL_CHARGES>
36
1 -0.08
11 0.18
13 0.28
14 0.18
17 0.05
18 0.28
2 -0.08
20 -0.14
21 0.06
22 0.57
23 0.38
25 0.12
26 -0.15
27 -0.11
28 -0.11
29 -0.15
3 -0.68
30 -0.15
31 -0.15
32 -0.15
33 -0.15
4 -0.68
5 -0.57
53 0.4
54 0.4
55 0.37
56 0.15
57 0.15
58 0.15
59 0.15
6 -0.57
60 0.15
61 0.15
62 0.15
63 0.15
7 -0.55

> <PUBCHEM_EFFECTIVE_ROTOR_COUNT>
7.2

> <PUBCHEM_PHARMACOPHORE_FEATURES>
12
1 3 acceptor
1 3 donor
1 4 acceptor
1 4 donor
1 5 acceptor
1 6 acceptor
1 7 donor
5 1 6 17 20 23 rings
5 2 24 26 27 28 rings
6 25 29 30 31 32 33 rings
6 8 9 10 12 13 15 rings
6 8 9 11 14 17 20 rings

> <PUBCHEM_HEAVY_ATOM_COUNT>
33

> <PUBCHEM_ATOM_DEF_STEREO_COUNT>
5

> <PUBCHEM_ATOM_UDEF_STEREO_COUNT>
0

> <PUBCHEM_BOND_DEF_STEREO_COUNT>
0

> <PUBCHEM_BOND_UDEF_STEREO_COUNT>
0

> <PUBCHEM_ISOTOPIC_ATOM_COUNT>
0

> <PUBCHEM_COMPONENT_COUNT>
1

> <PUBCHEM_CACTVS_TAUTO_COUNT>
2

> <PUBCHEM_CONFORMER_ID>
00B5139C00000001

> <PUBCHEM_MMFF94_ENERGY>
107.4937

> <PUBCHEM_FEATURE_SELFOVERLAP>
61.049

> <PUBCHEM_SHAPE_FINGERPRINT>
10050765 1 18338516460614066015
10411042 1 18338796694387341678
10622 236 17843383314689204871
10838868 158 17391083903170750514
1100329 8 18337955592991471432
11135926 11 18338512070414074565
11963148 33 17834950150635509671
12107183 9 18197787609216730169
12107698 1 18411135796959846066
12156800 1 15576093422319685164
12166972 35 18201436952569862522
12236239 1 17894915070529303390
12516196 113 18338515236242697898
12788726 201 18044935662674706930
12977781 61 17750809932802859186
13140716 1 18410019844893742715
13533116 47 18411701014840986208
13540713 5 18201434852710727599
13782708 43 17967248689535917691
140371 6 18199475363353398207
14068700 675 18340765949181204960
14117953 113 18200594683576241207
14849402 71 18408610287924125364
14931854 50 18191894339225093644
15001296 14 18337669818911064638
15400415 2 17761773270998487860
15439362 3 18335982090058617304
15684973 49 17203331066495115885
15775530 1 17681295547725388299
15927050 60 18052257590373170078
16067689 302 18195532712963940535
16112460 7 18341624706554393161
167882 2 18337953505901395304
18393751 57 17187563288095614929
18681886 176 18341890771579393890
19841028 212 18337949121589768339
20642791 35 18408603643229695986
20721686 56 18408606976820507186
20771845 171 17896042211876484164
21033648 29 17313094264466366295
21133665 82 17835243721237015140
21279426 13 18335413556905934117
21344244 246 18267014141280336623
21360443 120 18191025810606770780
21781055 127 16701481004500172963
22223350 30 17823152270251225619
22311459 1 18338517422523398411
23559900 14 18411129229981035889
244849 19 17823151179413304955
24771293 8 18201428169778317586
24771750 20 18190476024326672540
249057 3 18342171130143630511
249999 5 18268424806146132080
3298306 158 18195810893368016524
335352 9 18338794512733625997
3411729 13 18338797939743150324
4058900 60 17974582587129030244
4073 2 18119253002168292417
4280585 95 18337945684470290318
469060 322 18197506112854405786
5104073 3 18338811099707692115
5385378 56 18338802341531208777
59755656 215 18265616669990293028
6700243 42 17627812824903468758
67856867 119 18410854386386545855

> <PUBCHEM_SHAPE_MULTIPOLES>
659.25
15.75
5.13
1.1
5.76
4.67
-0.13
-7.33
0.33
-9.51
-0.37
0.13
-0.51
-0.58

> <PUBCHEM_SHAPE_SELFOVERLAP>
1408.3

> <PUBCHEM_SHAPE_VOLUME>
368.4

> <PUBCHEM_COORDINATE_TYPE>
2
5
10

$$$$
