25314270
  -OEChem-12032416193D

 56 60  0     1  0  0  0  0  0999 V2000
    3.1324   -0.4584    1.5648 O   0  0  0  0  0  0  0  0  0  0  0  0
    4.9326   -0.5196    0.1043 O   0  0  0  0  0  0  0  0  0  0  0  0
    3.3628   -1.4853   -2.0990 O   0  0  0  0  0  0  0  0  0  0  0  0
   -1.0138    5.0087    1.2114 O   0  0  0  0  0  0  0  0  0  0  0  0
   -4.1974   -0.2073   -1.2994 O   0  0  0  0  0  0  0  0  0  0  0  0
   -5.3330   -1.1336    0.6136 O   0  0  0  0  0  0  0  0  0  0  0  0
    1.6727    1.1945   -0.3016 N   0  0  0  0  0  0  0  0  0  0  0  0
    0.9065   -2.0394    0.5490 N   0  0  0  0  0  0  0  0  0  0  0  0
   -0.2463    3.2418   -0.0911 N   0  0  0  0  0  0  0  0  0  0  0  0
    2.8307    0.3826   -0.6780 C   0  0  2  0  0  0  0  0  0  0  0  0
    2.3844   -1.0177   -1.1588 C   0  0  2  0  0  0  0  0  0  0  0  0
    2.2580   -2.0602   -0.0209 C   0  0  1  0  0  0  0  0  0  0  0  0
    3.2674   -1.8137    1.1238 C   0  0  1  0  0  0  0  0  0  0  0  0
    3.7964    0.2586    0.5153 C   0  0  1  0  0  0  0  0  0  0  0  0
    4.7201   -1.8159    0.6833 C   0  0  0  0  0  0  0  0  0  0  0  0
    0.7427    1.3704   -1.4155 C   0  0  0  0  0  0  0  0  0  0  0  0
    2.0804    2.4714    0.3026 C   0  0  0  0  0  0  0  0  0  0  0  0
   -0.5267    2.0573   -0.9078 C   0  0  0  0  0  0  0  0  0  0  0  0
    1.1524    3.6496   -0.0161 C   0  0  0  0  0  0  0  0  0  0  0  0
   -0.0319   -2.7020   -0.3402 C   0  0  0  0  0  0  0  0  0  0  0  0
   -1.2357    4.0109    0.5224 C   0  0  0  0  0  0  0  0  0  0  0  0
   -1.4546   -2.3018   -0.0530 C   0  0  0  0  0  0  0  0  0  0  0  0
   -2.6578    3.5527    0.3061 C   0  0  0  0  0  0  0  0  0  0  0  0
   -2.1053   -1.3998   -0.8983 C   0  0  0  0  0  0  0  0  0  0  0  0
   -2.1172   -2.8420    1.0631 C   0  0  0  0  0  0  0  0  0  0  0  0
   -3.4092   -1.0651   -0.5958 C   0  0  0  0  0  0  0  0  0  0  0  0
   -3.4381   -2.4866    1.3469 C   0  0  0  0  0  0  0  0  0  0  0  0
   -4.0578   -1.5940    0.4966 C   0  0  0  0  0  0  0  0  0  0  0  0
   -5.4148   -0.2559   -0.5277 C   0  0  0  0  0  0  0  0  0  0  0  0
    3.3760    0.8713   -1.4986 H   0  0  0  0  0  0  0  0  0  0  0  0
    1.4916   -1.0051   -1.7724 H   0  0  0  0  0  0  0  0  0  0  0  0
    2.4687   -3.0672   -0.4068 H   0  0  0  0  0  0  0  0  0  0  0  0
    3.1043   -2.5052    1.9576 H   0  0  0  0  0  0  0  0  0  0  0  0
    4.1756    1.2064    0.9032 H   0  0  0  0  0  0  0  0  0  0  0  0
    5.3900   -1.8942    1.5464 H   0  0  0  0  0  0  0  0  0  0  0  0
    4.9697   -2.6044   -0.0316 H   0  0  0  0  0  0  0  0  0  0  0  0
    0.3888    0.4531   -1.8819 H   0  0  0  0  0  0  0  0  0  0  0  0
    1.2057    1.9686   -2.2116 H   0  0  0  0  0  0  0  0  0  0  0  0
    3.0793    2.7890   -0.0226 H   0  0  0  0  0  0  0  0  0  0  0  0
    2.1088    2.3371    1.3906 H   0  0  0  0  0  0  0  0  0  0  0  0
    0.8943   -2.5058    1.4556 H   0  0  0  0  0  0  0  0  0  0  0  0
   -1.1112    1.3656   -0.2918 H   0  0  0  0  0  0  0  0  0  0  0  0
   -1.1514    2.3627   -1.7542 H   0  0  0  0  0  0  0  0  0  0  0  0
    1.4055    4.0778   -0.9942 H   0  0  0  0  0  0  0  0  0  0  0  0
    1.2893    4.4442    0.7248 H   0  0  0  0  0  0  0  0  0  0  0  0
    3.0643   -2.3491   -2.4315 H   0  0  0  0  0  0  0  0  0  0  0  0
    0.0589   -3.7908   -0.2262 H   0  0  0  0  0  0  0  0  0  0  0  0
    0.1647   -2.5161   -1.4016 H   0  0  0  0  0  0  0  0  0  0  0  0
   -2.8049    2.5578    0.7342 H   0  0  0  0  0  0  0  0  0  0  0  0
   -2.8988    3.5444   -0.7598 H   0  0  0  0  0  0  0  0  0  0  0  0
   -3.3425    4.2452    0.8052 H   0  0  0  0  0  0  0  0  0  0  0  0
   -1.6129   -0.9766   -1.7667 H   0  0  0  0  0  0  0  0  0  0  0  0
   -1.6064   -3.5446    1.7172 H   0  0  0  0  0  0  0  0  0  0  0  0
   -3.9525   -2.9009    2.2066 H   0  0  0  0  0  0  0  0  0  0  0  0
   -6.2285   -0.5990   -1.1770 H   0  0  0  0  0  0  0  0  0  0  0  0
   -5.6474    0.7559   -0.1762 H   0  0  0  0  0  0  0  0  0  0  0  0
  1 13  1  0  0  0  0
  1 14  1  0  0  0  0
  2 14  1  0  0  0  0
  2 15  1  0  0  0  0
  3 11  1  0  0  0  0
  3 46  1  0  0  0  0
  4 21  2  0  0  0  0
  5 26  1  0  0  0  0
  5 29  1  0  0  0  0
  6 28  1  0  0  0  0
  6 29  1  0  0  0  0
  7 10  1  0  0  0  0
  7 16  1  0  0  0  0
  7 17  1  0  0  0  0
  8 12  1  0  0  0  0
  8 20  1  0  0  0  0
  8 41  1  0  0  0  0
  9 18  1  0  0  0  0
  9 19  1  0  0  0  0
  9 21  1  0  0  0  0
 10 11  1  0  0  0  0
 10 14  1  0  0  0  0
 10 30  1  0  0  0  0
 11 12  1  0  0  0  0
 11 31  1  0  0  0  0
 12 13  1  0  0  0  0
 12 32  1  0  0  0  0
 13 15  1  0  0  0  0
 13 33  1  0  0  0  0
 14 34  1  0  0  0  0
 15 35  1  0  0  0  0
 15 36  1  0  0  0  0
 16 18  1  0  0  0  0
 16 37  1  0  0  0  0
 16 38  1  0  0  0  0
 17 19  1  0  0  0  0
 17 39  1  0  0  0  0
 17 40  1  0  0  0  0
 18 42  1  0  0  0  0
 18 43  1  0  0  0  0
 19 44  1  0  0  0  0
 19 45  1  0  0  0  0
 20 22  1  0  0  0  0
 20 47  1  0  0  0  0
 20 48  1  0  0  0  0
 21 23  1  0  0  0  0
 22 24  2  0  0  0  0
 22 25  1  0  0  0  0
 23 49  1  0  0  0  0
 23 50  1  0  0  0  0
 23 51  1  0  0  0  0
 24 26  1  0  0  0  0
 24 52  1  0  0  0  0
 25 27  2  0  0  0  0
 25 53  1  0  0  0  0
 26 28  2  0  0  0  0
 27 28  1  0  0  0  0
 27 54  1  0  0  0  0
 29 55  1  0  0  0  0
 29 56  1  0  0  0  0
M  END
> <PUBCHEM_COMPOUND_CID>
25314270

> <PUBCHEM_CONFORMER_RMSD>
1

> <PUBCHEM_CONFORMER_DIVERSEORDER>
4
43
74
71
13
42
26
61
39
72
49
32
46
20
34
12
60
81
45
83
23
10
16
35
76
28
78
1
38
29
54
56
64
66
33
80
62
75
73
51
77
47
5
57
8
15
18
36
31
21
9
41
79
37
84
63
11
52
58
67
6
68
53
40
2
48
59
7
14
69
50
44
24
70
82
22
3
19
17
55
25
30
65
27

> <PUBCHEM_MMFF94_PARTIAL_CHARGES>
34
1 -0.56
10 0.27
11 0.28
12 0.27
13 0.28
14 0.56
15 0.28
16 0.27
17 0.27
18 0.3
19 0.3
2 -0.56
20 0.41
21 0.57
22 -0.14
23 0.06
24 -0.15
25 -0.15
26 0.08
27 -0.15
28 0.08
29 0.56
3 -0.68
4 -0.57
41 0.36
46 0.4
5 -0.36
52 0.15
53 0.15
54 0.15
6 -0.36
7 -0.81
8 -0.9
9 -0.66

> <PUBCHEM_EFFECTIVE_ROTOR_COUNT>
8

> <PUBCHEM_PHARMACOPHORE_FEATURES>
14
1 1 acceptor
1 2 acceptor
1 3 acceptor
1 3 donor
1 4 acceptor
1 5 acceptor
1 6 acceptor
1 7 cation
1 8 cation
1 8 donor
5 5 6 26 28 29 rings
6 22 24 25 26 27 28 rings
6 7 9 16 17 18 19 rings
8 1 2 10 11 12 13 14 15 rings

> <PUBCHEM_HEAVY_ATOM_COUNT>
29

> <PUBCHEM_ATOM_DEF_STEREO_COUNT>
5

> <PUBCHEM_ATOM_UDEF_STEREO_COUNT>
0

> <PUBCHEM_BOND_DEF_STEREO_COUNT>
0

> <PUBCHEM_BOND_UDEF_STEREO_COUNT>
0

> <PUBCHEM_ISOTOPIC_ATOM_COUNT>
0

> <PUBCHEM_COMPONENT_COUNT>
1

> <PUBCHEM_CACTVS_TAUTO_COUNT>
1

> <PUBCHEM_CONFORMER_ID>
018243DE00000004

> <PUBCHEM_MMFF94_ENERGY>
84.2085

> <PUBCHEM_FEATURE_SELFOVERLAP>
71.253

> <PUBCHEM_SHAPE_FINGERPRINT>
10006869 2 18268413785523710120
10064457 181 17619067231689806296
10190206 1 18046377303757147780
104564 63 18338518534460660998
11456790 92 18186517675614677395
11513181 2 17842268173606665599
11646440 116 18409732867863374907
12156800 1 17979949045252982086
12422481 6 17985012335576042737
12553582 1 18338252499954552897
12633257 1 18260837020520912619
12655364 131 16835399548693403896
12788726 201 18411145714160775364
13122387 1 18195247707122653057
13140716 1 18263926707976293615
13402501 40 18261384547119829455
13533116 47 17903635525752613799
138480 1 15240037236195487480
14178342 30 18122898725312900364
14725015 67 18334564734224358539
14790565 3 17326051153901301012
14866123 147 17254263532564334786
150020 26 17900545880623932897
15238133 3 18113058224808799534
15351339 4 18047169875510353301
15420108 30 17627221596499910164
19930381 70 17545602713898250867
20567600 299 18054507186404317713
21860390 5 18199754819721925566
22113638 7 18270112551898938735
3052486 1 18263932025293051150
338550 245 18191031105831844429
35225 105 17700394902328898969
5081480 168 17554936287047902494
5265222 85 17107076824201369780
5939293 188 18195809789445071526
6004065 56 18197196231016934959
6438718 38 18058157328568879791
6443956 14 18336548329824858852
653340 110 18196929976739604960
79837 15 17765438647390618761
8509985 295 18187354454554001599

> <PUBCHEM_SHAPE_MULTIPOLES>
546.65
9.26
5.55
1.32
4.07
7.74
0.19
-5.95
-0.71
1.9
-1.83
-0.28
-0.28
0.1

> <PUBCHEM_SHAPE_SELFOVERLAP>
1182.185

> <PUBCHEM_SHAPE_VOLUME>
295.6

> <PUBCHEM_COORDINATE_TYPE>
2
5
10

$$$$
