28960189
  -OEChem-12032416353D

 78 81  0     1  0  0  0  0  0999 V2000
    0.9872    3.9534    1.7741 O   0  0  0  0  0  0  0  0  0  0  0  0
    6.6588   -1.8960    0.2721 O   0  0  0  0  0  0  0  0  0  0  0  0
    6.8195    0.3499   -0.0603 O   0  0  0  0  0  0  0  0  0  0  0  0
   -6.7519   -0.6354    0.4704 O   0  0  0  0  0  0  0  0  0  0  0  0
    2.0454    2.7018    0.1275 N   0  0  0  0  0  0  0  0  0  0  0  0
   -0.3801   -1.7432   -0.2864 N   0  0  3  0  0  0  0  0  0  0  0  0
   -3.9480   -0.6829   -0.0169 N   0  0  0  0  0  0  0  0  0  0  0  0
    2.6045    0.5312   -0.9445 C   0  0  2  0  0  0  0  0  0  0  0  0
    4.0136    0.6204   -0.3047 C   0  0  1  0  0  0  0  0  0  0  0  0
    2.0245    1.9450   -1.1308 C   0  0  0  0  0  0  0  0  0  0  0  0
    3.9979    1.4632    0.9819 C   0  0  0  0  0  0  0  0  0  0  0  0
    3.3669    2.8321    0.7406 C   0  0  0  0  0  0  0  0  0  0  0  0
    1.6206   -0.3496   -0.1645 C   0  0  0  0  0  0  0  0  0  0  0  0
   -0.3794    3.1181    0.0407 C   0  0  0  0  0  0  0  0  0  0  0  0
    4.6432   -0.7479   -0.0450 C   0  0  0  0  0  0  0  0  0  0  0  0
    0.9385    3.2998    0.7288 C   0  0  0  0  0  0  0  0  0  0  0  0
    0.4969   -0.8805   -1.0409 C   0  0  0  0  0  0  0  0  0  0  0  0
   -1.5078    3.1039    1.0729 C   0  0  0  0  0  0  0  0  0  0  0  0
   -0.5713    4.2367   -0.9849 C   0  0  0  0  0  0  0  0  0  0  0  0
   -2.8775    3.0244    0.4038 C   0  0  0  0  0  0  0  0  0  0  0  0
   -1.9433    4.1587   -1.6497 C   0  0  0  0  0  0  0  0  0  0  0  0
   -3.0688    4.1409   -0.6190 C   0  0  0  0  0  0  0  0  0  0  0  0
    6.1416   -0.6609    0.0467 C   0  0  0  0  0  0  0  0  0  0  0  0
   -1.5706   -1.1607    0.3359 C   0  0  0  0  0  0  0  0  0  0  0  0
   -0.1169   -3.1135   -0.1482 C   0  0  0  0  0  0  0  0  0  0  0  0
   -2.7481   -1.2531   -0.6259 C   0  0  0  0  0  0  0  0  0  0  0  0
   -4.5881   -1.6530    0.8823 C   0  0  0  0  0  0  0  0  0  0  0  0
   -4.9001   -0.2479   -1.0482 C   0  0  0  0  0  0  0  0  0  0  0  0
   -0.0407   -3.9267   -1.2788 C   0  0  0  0  0  0  0  0  0  0  0  0
    0.0684   -3.6634    1.1202 C   0  0  0  0  0  0  0  0  0  0  0  0
   -5.8440   -1.0405    1.4958 C   0  0  0  0  0  0  0  0  0  0  0  0
   -6.1480    0.3323   -0.3887 C   0  0  0  0  0  0  0  0  0  0  0  0
    0.2208   -5.2900   -1.1411 C   0  0  0  0  0  0  0  0  0  0  0  0
    0.3300   -5.0265    1.2580 C   0  0  0  0  0  0  0  0  0  0  0  0
    0.4061   -5.8399    0.1272 C   0  0  0  0  0  0  0  0  0  0  0  0
    2.7372    0.0920   -1.9430 H   0  0  0  0  0  0  0  0  0  0  0  0
    4.6411    1.1565   -1.0322 H   0  0  0  0  0  0  0  0  0  0  0  0
    2.6667    2.5028   -1.8259 H   0  0  0  0  0  0  0  0  0  0  0  0
    1.0522    1.9103   -1.6170 H   0  0  0  0  0  0  0  0  0  0  0  0
    5.0115    1.6042    1.3724 H   0  0  0  0  0  0  0  0  0  0  0  0
    3.4283    0.9390    1.7599 H   0  0  0  0  0  0  0  0  0  0  0  0
    3.3062    3.3807    1.6857 H   0  0  0  0  0  0  0  0  0  0  0  0
    3.9877    3.4254    0.0588 H   0  0  0  0  0  0  0  0  0  0  0  0
    2.1399   -1.2171    0.2559 H   0  0  0  0  0  0  0  0  0  0  0  0
    1.2065    0.1871    0.6976 H   0  0  0  0  0  0  0  0  0  0  0  0
   -0.4393    2.1433   -0.4465 H   0  0  0  0  0  0  0  0  0  0  0  0
    4.2709   -1.1851    0.8880 H   0  0  0  0  0  0  0  0  0  0  0  0
    4.4126   -1.4256   -0.8755 H   0  0  0  0  0  0  0  0  0  0  0  0
   -0.0779   -0.0487   -1.4626 H   0  0  0  0  0  0  0  0  0  0  0  0
    0.9184   -1.4100   -1.9041 H   0  0  0  0  0  0  0  0  0  0  0  0
   -1.4800    4.0095    1.6930 H   0  0  0  0  0  0  0  0  0  0  0  0
   -1.3836    2.2557    1.7575 H   0  0  0  0  0  0  0  0  0  0  0  0
    0.2066    4.1931   -1.7559 H   0  0  0  0  0  0  0  0  0  0  0  0
   -0.4624    5.2146   -0.4972 H   0  0  0  0  0  0  0  0  0  0  0  0
   -3.6657    3.0774    1.1630 H   0  0  0  0  0  0  0  0  0  0  0  0
   -2.9791    2.0561   -0.0974 H   0  0  0  0  0  0  0  0  0  0  0  0
   -1.9982    3.2522   -2.2651 H   0  0  0  0  0  0  0  0  0  0  0  0
   -2.0752    5.0117   -2.3249 H   0  0  0  0  0  0  0  0  0  0  0  0
   -4.0315    4.0137   -1.1269 H   0  0  0  0  0  0  0  0  0  0  0  0
   -3.1049    5.1074   -0.1015 H   0  0  0  0  0  0  0  0  0  0  0  0
   -1.3778   -0.1103    0.5879 H   0  0  0  0  0  0  0  0  0  0  0  0
   -1.7863   -1.6596    1.2864 H   0  0  0  0  0  0  0  0  0  0  0  0
   -2.9156   -2.2847   -0.9623 H   0  0  0  0  0  0  0  0  0  0  0  0
   -2.4807   -0.6833   -1.5263 H   0  0  0  0  0  0  0  0  0  0  0  0
    7.6374   -1.8762    0.3379 H   0  0  0  0  0  0  0  0  0  0  0  0
   -3.9179   -1.9448    1.6969 H   0  0  0  0  0  0  0  0  0  0  0  0
   -4.8638   -2.5608    0.3296 H   0  0  0  0  0  0  0  0  0  0  0  0
   -5.1826   -1.0962   -1.6852 H   0  0  0  0  0  0  0  0  0  0  0  0
   -4.4501    0.5218   -1.6857 H   0  0  0  0  0  0  0  0  0  0  0  0
   -0.1931   -3.5172   -2.2741 H   0  0  0  0  0  0  0  0  0  0  0  0
    0.0243   -3.0428    2.0115 H   0  0  0  0  0  0  0  0  0  0  0  0
   -5.6047   -0.1808    2.1336 H   0  0  0  0  0  0  0  0  0  0  0  0
   -6.3551   -1.7823    2.1179 H   0  0  0  0  0  0  0  0  0  0  0  0
   -6.8826    0.6022   -1.1541 H   0  0  0  0  0  0  0  0  0  0  0  0
   -5.9181    1.2387    0.1846 H   0  0  0  0  0  0  0  0  0  0  0  0
    0.2778   -5.9237   -2.0213 H   0  0  0  0  0  0  0  0  0  0  0  0
    0.4771   -5.4543    2.2453 H   0  0  0  0  0  0  0  0  0  0  0  0
    0.6098   -6.9012    0.2345 H   0  0  0  0  0  0  0  0  0  0  0  0
  1 16  2  0  0  0  0
  2 23  1  0  0  0  0
  2 65  1  0  0  0  0
  3 23  2  0  0  0  0
  4 31  1  0  0  0  0
  4 32  1  0  0  0  0
  5 10  1  0  0  0  0
  5 12  1  0  0  0  0
  5 16  1  0  0  0  0
  6 17  1  0  0  0  0
  6 24  1  0  0  0  0
  6 25  1  0  0  0  0
  7 26  1  0  0  0  0
  7 27  1  0  0  0  0
  7 28  1  0  0  0  0
  8  9  1  0  0  0  0
  8 10  1  0  0  0  0
  8 13  1  0  0  0  0
  8 36  1  0  0  0  0
  9 11  1  0  0  0  0
  9 15  1  0  0  0  0
  9 37  1  0  0  0  0
 10 38  1  0  0  0  0
 10 39  1  0  0  0  0
 11 12  1  0  0  0  0
 11 40  1  0  0  0  0
 11 41  1  0  0  0  0
 12 42  1  0  0  0  0
 12 43  1  0  0  0  0
 13 17  1  0  0  0  0
 13 44  1  0  0  0  0
 13 45  1  0  0  0  0
 14 16  1  0  0  0  0
 14 18  1  0  0  0  0
 14 19  1  0  0  0  0
 14 46  1  0  0  0  0
 15 23  1  0  0  0  0
 15 47  1  0  0  0  0
 15 48  1  0  0  0  0
 17 49  1  0  0  0  0
 17 50  1  0  0  0  0
 18 20  1  0  0  0  0
 18 51  1  0  0  0  0
 18 52  1  0  0  0  0
 19 21  1  0  0  0  0
 19 53  1  0  0  0  0
 19 54  1  0  0  0  0
 20 22  1  0  0  0  0
 20 55  1  0  0  0  0
 20 56  1  0  0  0  0
 21 22  1  0  0  0  0
 21 57  1  0  0  0  0
 21 58  1  0  0  0  0
 22 59  1  0  0  0  0
 22 60  1  0  0  0  0
 24 26  1  0  0  0  0
 24 61  1  0  0  0  0
 24 62  1  0  0  0  0
 25 29  2  0  0  0  0
 25 30  1  0  0  0  0
 26 63  1  0  0  0  0
 26 64  1  0  0  0  0
 27 31  1  0  0  0  0
 27 66  1  0  0  0  0
 27 67  1  0  0  0  0
 28 32  1  0  0  0  0
 28 68  1  0  0  0  0
 28 69  1  0  0  0  0
 29 33  1  0  0  0  0
 29 70  1  0  0  0  0
 30 34  2  0  0  0  0
 30 71  1  0  0  0  0
 31 72  1  0  0  0  0
 31 73  1  0  0  0  0
 32 74  1  0  0  0  0
 32 75  1  0  0  0  0
 33 35  2  0  0  0  0
 33 76  1  0  0  0  0
 34 35  1  0  0  0  0
 34 77  1  0  0  0  0
 35 78  1  0  0  0  0
M  END
> <PUBCHEM_COMPOUND_CID>
28960189

> <PUBCHEM_CONFORMER_RMSD>
1.2

> <PUBCHEM_CONFORMER_DIVERSEORDER>
1
155
101
20
169
150
24
88
60
67
96
156
2
78
110
129
141
76
187
107
22
28
92
66
125
85
111
12
184
80
182
148
55
83
153
38
134
170
174
77
105
139
163
186
160
161
95
5
133
135
72
152
140
4
190
158
154
120
179
61
137
79
82
68
41
93
136
6
117
168
64
178
181
167
113
108
128
127
151
50
52
73
46
36
118
131
25
185
49
171
18
130
149
7
188
27
183
42
162
165
44
100
173
86
17
146
71
121
59
138
70
48
176
175
33
142
56
126
29
8
57
144
115
116
112
164
11
51
37
54
90
65
122
166
106
84
87
43
159
58
45
157
143
15
62
180
14
145
147
69
3
47
123
35
32
103
13
91
124
114
34
189
75
89
23
19
119
99
81
98
63
97
26
16
40
172
104
53
102
31
177
94
9
21
74
132
39
30
10
109

> <PUBCHEM_MMFF94_PARTIAL_CHARGES>
32
1 -0.57
10 0.3
12 0.3
14 0.06
15 0.06
16 0.57
17 0.37
2 -0.65
23 0.66
24 0.37
25 0.1
26 0.27
27 0.27
28 0.27
29 -0.15
3 -0.57
30 -0.15
31 0.28
32 0.28
33 -0.15
34 -0.15
35 -0.15
4 -0.56
5 -0.66
6 -0.84
65 0.5
7 -0.81
70 0.15
71 0.15
76 0.15
77 0.15
78 0.15

> <PUBCHEM_EFFECTIVE_ROTOR_COUNT>
14.6

> <PUBCHEM_PHARMACOPHORE_FEATURES>
11
1 1 acceptor
1 2 acceptor
1 3 acceptor
1 4 acceptor
1 6 cation
1 7 cation
3 2 3 23 anion
6 14 18 19 20 21 22 rings
6 25 29 30 33 34 35 rings
6 4 7 27 28 31 32 rings
6 5 8 9 10 11 12 rings

> <PUBCHEM_HEAVY_ATOM_COUNT>
35

> <PUBCHEM_ATOM_DEF_STEREO_COUNT>
2

> <PUBCHEM_ATOM_UDEF_STEREO_COUNT>
0

> <PUBCHEM_BOND_DEF_STEREO_COUNT>
0

> <PUBCHEM_BOND_UDEF_STEREO_COUNT>
0

> <PUBCHEM_ISOTOPIC_ATOM_COUNT>
0

> <PUBCHEM_COMPONENT_COUNT>
1

> <PUBCHEM_CACTVS_TAUTO_COUNT>
1

> <PUBCHEM_CONFORMER_ID>
01B9E5BD00000001

> <PUBCHEM_MMFF94_ENERGY>
83.8286

> <PUBCHEM_FEATURE_SELFOVERLAP>
55.879

> <PUBCHEM_SHAPE_FINGERPRINT>
10190108 129 18337970986592181665
12788726 201 18409444770447962090
13140716 1 18342177709327367184
14725015 67 18412541020286537937
15351339 4 18191297191534298498
15781502 589 18198618823354330807
15815584 197 18266201507704177351
15927050 60 17908142079662940628
16728300 4 17896860094056459106
17627616 140 17977101254202207198
19311894 1 18268982262499220279
20028762 73 18272089370441498382
20642791 105 18263078834424845564
22223350 30 17912357925076721363
24893992 56 18336547214346593899
3178227 256 18336839662052376403
3383291 50 18411132542018584442
373842 8 18049431548519915643
469060 322 18263099755268599073
5265222 85 18263660467992335548

> <PUBCHEM_SHAPE_MULTIPOLES>
681.86
12.13
8.55
1.32
0.88
5.63
-0.04
0.32
-1.75
-0.85
0.16
-0.53
-0.18
1.24

> <PUBCHEM_SHAPE_SELFOVERLAP>
1406.169

> <PUBCHEM_SHAPE_VOLUME>
386.6

> <PUBCHEM_COORDINATE_TYPE>
2
5
10

$$$$
