38028751
  -OEChem-12032416253D

 66 68  0     1  0  0  0  0  0999 V2000
   -2.4864    0.4486    0.2313 S   0  0  0  0  0  0  0  0  0  0  0  0
    5.0711   -0.3981   -0.4240 O   0  0  0  0  0  0  0  0  0  0  0  0
   -2.4638    0.4604   -1.2183 O   0  0  0  0  0  0  0  0  0  0  0  0
   -2.4567    1.6879    0.9840 O   0  0  0  0  0  0  0  0  0  0  0  0
    4.5494    1.8303   -0.1078 N   0  0  0  0  0  0  0  0  0  0  0  0
   -1.2516   -0.5753    0.8198 N   0  0  0  0  0  0  0  0  0  0  0  0
    0.9963   -1.8235   -0.7192 C   0  0  1  0  0  0  0  0  0  0  0  0
    0.1865   -2.5120    0.4079 C   0  0  1  0  0  0  0  0  0  0  0  0
    2.5035   -2.0113   -0.4880 C   0  0  0  0  0  0  0  0  0  0  0  0
    2.9618   -1.4343    0.8647 C   0  0  2  0  0  0  0  0  0  0  0  0
    0.6133   -2.3580   -2.1027 C   0  0  0  0  0  0  0  0  0  0  0  0
    2.0460   -1.8558    1.9959 C   0  0  0  0  0  0  0  0  0  0  0  0
    0.8145   -2.3476    1.7721 C   0  0  0  0  0  0  0  0  0  0  0  0
   -1.2571   -1.9980    0.4450 C   0  0  0  0  0  0  0  0  0  0  0  0
    3.0875    0.0919    0.8000 C   0  0  0  0  0  0  0  0  0  0  0  0
    0.9280   -1.3236   -3.1787 C   0  0  0  0  0  0  0  0  0  0  0  0
    1.3377   -3.6702   -2.3853 C   0  0  0  0  0  0  0  0  0  0  0  0
    2.5959   -1.7415    3.3905 C   0  0  0  0  0  0  0  0  0  0  0  0
    4.3271    0.4725    0.0307 C   0  0  0  0  0  0  0  0  0  0  0  0
    3.7080    2.9087    0.4016 C   0  0  0  0  0  0  0  0  0  0  0  0
    5.7049    2.3601   -0.8170 C   0  0  0  0  0  0  0  0  0  0  0  0
    4.5478    4.1647    0.2164 C   0  0  0  0  0  0  0  0  0  0  0  0
    5.3893    3.8353   -1.0101 C   0  0  0  0  0  0  0  0  0  0  0  0
   -3.9296   -0.4522    0.7487 C   0  0  0  0  0  0  0  0  0  0  0  0
   -5.1330    0.3205    0.3044 C   0  0  0  0  0  0  0  0  0  0  0  0
   -5.4929    0.3366   -1.0431 C   0  0  0  0  0  0  0  0  0  0  0  0
   -5.8940    1.0240    1.2380 C   0  0  0  0  0  0  0  0  0  0  0  0
   -6.6138    1.0563   -1.4572 C   0  0  0  0  0  0  0  0  0  0  0  0
   -7.0149    1.7437    0.8240 C   0  0  0  0  0  0  0  0  0  0  0  0
   -7.3747    1.7598   -0.5236 C   0  0  0  0  0  0  0  0  0  0  0  0
    0.7797   -0.7486   -0.6994 H   0  0  0  0  0  0  0  0  0  0  0  0
    0.1426   -3.5922    0.2198 H   0  0  0  0  0  0  0  0  0  0  0  0
    3.0807   -1.5764   -1.3093 H   0  0  0  0  0  0  0  0  0  0  0  0
    2.7598   -3.0782   -0.4557 H   0  0  0  0  0  0  0  0  0  0  0  0
    3.9447   -1.8769    1.0805 H   0  0  0  0  0  0  0  0  0  0  0  0
   -0.4633   -2.5488   -2.1557 H   0  0  0  0  0  0  0  0  0  0  0  0
    0.2184   -2.6785    2.6204 H   0  0  0  0  0  0  0  0  0  0  0  0
    3.1956    0.5100    1.8067 H   0  0  0  0  0  0  0  0  0  0  0  0
    2.2107    0.5571    0.3392 H   0  0  0  0  0  0  0  0  0  0  0  0
   -1.7477   -2.1417   -0.5208 H   0  0  0  0  0  0  0  0  0  0  0  0
   -1.8362   -2.5526    1.1931 H   0  0  0  0  0  0  0  0  0  0  0  0
    0.6218   -1.6919   -4.1640 H   0  0  0  0  0  0  0  0  0  0  0  0
    0.3855   -0.3900   -2.9946 H   0  0  0  0  0  0  0  0  0  0  0  0
    1.9958   -1.0901   -3.2330 H   0  0  0  0  0  0  0  0  0  0  0  0
    1.2153   -4.4025   -1.5818 H   0  0  0  0  0  0  0  0  0  0  0  0
    0.9135   -4.1278   -3.2877 H   0  0  0  0  0  0  0  0  0  0  0  0
    2.4044   -3.5369   -2.5940 H   0  0  0  0  0  0  0  0  0  0  0  0
    2.7696   -0.6959    3.6602 H   0  0  0  0  0  0  0  0  0  0  0  0
    1.9133   -2.1624    4.1367 H   0  0  0  0  0  0  0  0  0  0  0  0
    3.5431   -2.2846    3.4716 H   0  0  0  0  0  0  0  0  0  0  0  0
   -0.9591   -0.4031    1.7907 H   0  0  0  0  0  0  0  0  0  0  0  0
    2.7988    2.9404   -0.2086 H   0  0  0  0  0  0  0  0  0  0  0  0
    3.4333    2.7411    1.4461 H   0  0  0  0  0  0  0  0  0  0  0  0
    6.5826    2.2164   -0.1772 H   0  0  0  0  0  0  0  0  0  0  0  0
    5.8631    1.8267   -1.7590 H   0  0  0  0  0  0  0  0  0  0  0  0
    5.2013    4.3109    1.0849 H   0  0  0  0  0  0  0  0  0  0  0  0
    3.9388    5.0639    0.0896 H   0  0  0  0  0  0  0  0  0  0  0  0
    4.7910    3.9763   -1.9182 H   0  0  0  0  0  0  0  0  0  0  0  0
    6.2885    4.4520   -1.0913 H   0  0  0  0  0  0  0  0  0  0  0  0
   -3.8925   -0.5641    1.8366 H   0  0  0  0  0  0  0  0  0  0  0  0
   -3.9321   -1.4424    0.2851 H   0  0  0  0  0  0  0  0  0  0  0  0
   -4.9263   -0.2227   -1.7822 H   0  0  0  0  0  0  0  0  0  0  0  0
   -5.6242    1.0215    2.2906 H   0  0  0  0  0  0  0  0  0  0  0  0
   -6.8970    1.0648   -2.5057 H   0  0  0  0  0  0  0  0  0  0  0  0
   -7.6075    2.2917    1.5507 H   0  0  0  0  0  0  0  0  0  0  0  0
   -8.2481    2.3194   -0.8457 H   0  0  0  0  0  0  0  0  0  0  0  0
  1  3  2  0  0  0  0
  1  4  2  0  0  0  0
  1  6  1  0  0  0  0
  1 24  1  0  0  0  0
  2 19  2  0  0  0  0
  5 19  1  0  0  0  0
  5 20  1  0  0  0  0
  5 21  1  0  0  0  0
  6 14  1  0  0  0  0
  6 51  1  0  0  0  0
  7  8  1  0  0  0  0
  7  9  1  0  0  0  0
  7 11  1  0  0  0  0
  7 31  1  0  0  0  0
  8 13  1  0  0  0  0
  8 14  1  0  0  0  0
  8 32  1  0  0  0  0
  9 10  1  0  0  0  0
  9 33  1  0  0  0  0
  9 34  1  0  0  0  0
 10 12  1  0  0  0  0
 10 15  1  0  0  0  0
 10 35  1  0  0  0  0
 11 16  1  0  0  0  0
 11 17  1  0  0  0  0
 11 36  1  0  0  0  0
 12 13  2  0  0  0  0
 12 18  1  0  0  0  0
 13 37  1  0  0  0  0
 14 40  1  0  0  0  0
 14 41  1  0  0  0  0
 15 19  1  0  0  0  0
 15 38  1  0  0  0  0
 15 39  1  0  0  0  0
 16 42  1  0  0  0  0
 16 43  1  0  0  0  0
 16 44  1  0  0  0  0
 17 45  1  0  0  0  0
 17 46  1  0  0  0  0
 17 47  1  0  0  0  0
 18 48  1  0  0  0  0
 18 49  1  0  0  0  0
 18 50  1  0  0  0  0
 20 22  1  0  0  0  0
 20 52  1  0  0  0  0
 20 53  1  0  0  0  0
 21 23  1  0  0  0  0
 21 54  1  0  0  0  0
 21 55  1  0  0  0  0
 22 23  1  0  0  0  0
 22 56  1  0  0  0  0
 22 57  1  0  0  0  0
 23 58  1  0  0  0  0
 23 59  1  0  0  0  0
 24 25  1  0  0  0  0
 24 60  1  0  0  0  0
 24 61  1  0  0  0  0
 25 26  2  0  0  0  0
 25 27  1  0  0  0  0
 26 28  1  0  0  0  0
 26 62  1  0  0  0  0
 27 29  2  0  0  0  0
 27 63  1  0  0  0  0
 28 30  2  0  0  0  0
 28 64  1  0  0  0  0
 29 30  1  0  0  0  0
 29 65  1  0  0  0  0
 30 66  1  0  0  0  0
M  END
> <PUBCHEM_COMPOUND_CID>
38028751

> <PUBCHEM_CONFORMER_RMSD>
1.2

> <PUBCHEM_CONFORMER_DIVERSEORDER>
1
33
152
83
120
161
151
102
131
37
38
93
139
82
104
168
119
19
78
136
59
18
3
162
122
5
130
14
76
42
23
117
146
74
55
138
121
48
81
4
89
169
9
155
165
57
40
46
20
116
134
26
6
65
22
30
153
24
113
50
141
35
84
98
140
109
96
36
108
16
163
88
28
53
154
114
166
12
167
111
63
66
67
101
34
90
149
21
148
158
79
156
147
124
54
160
58
51
87
77
126
61
105
69
71
60
32
95
17
115
29
10
125
15
86
142
64
159
85
100
132
123
164
145
13
106
31
68
133
110
25
143
91
144
137
99
39
112
70
27
44
49
62
103
94
80
107
127
73
56
52
118
150
135
75
157
129
7
43
47
45
128
92
97
8
2
72
41
11

> <PUBCHEM_MMFF94_PARTIAL_CHARGES>
30
1 1.33
10 0.14
12 -0.28
13 -0.29
14 0.36
15 0.06
18 0.14
19 0.57
2 -0.57
20 0.3
21 0.3
24 0.25
25 -0.14
26 -0.15
27 -0.15
28 -0.15
29 -0.15
3 -0.65
30 -0.15
37 0.15
4 -0.65
5 -0.66
51 0.42
6 -0.91
62 0.15
63 0.15
64 0.15
65 0.15
66 0.15
8 0.14

> <PUBCHEM_EFFECTIVE_ROTOR_COUNT>
10.8

> <PUBCHEM_PHARMACOPHORE_FEATURES>
8
1 2 acceptor
1 3 acceptor
1 4 acceptor
1 6 donor
3 11 16 17 hydrophobe
5 5 20 21 22 23 rings
6 25 26 27 28 29 30 rings
6 7 8 9 10 12 13 rings

> <PUBCHEM_HEAVY_ATOM_COUNT>
30

> <PUBCHEM_ATOM_DEF_STEREO_COUNT>
3

> <PUBCHEM_ATOM_UDEF_STEREO_COUNT>
0

> <PUBCHEM_BOND_DEF_STEREO_COUNT>
0

> <PUBCHEM_BOND_UDEF_STEREO_COUNT>
0

> <PUBCHEM_ISOTOPIC_ATOM_COUNT>
0

> <PUBCHEM_COMPONENT_COUNT>
1

> <PUBCHEM_CACTVS_TAUTO_COUNT>
1

> <PUBCHEM_CONFORMER_ID>
024445CF00000001

> <PUBCHEM_MMFF94_ENERGY>
61.6753

> <PUBCHEM_FEATURE_SELFOVERLAP>
40.614

> <PUBCHEM_SHAPE_FINGERPRINT>
10165383 225 17168150018901335962
10673678 19 18342745134588491241
11505856 67 17249231536247828502
13150687 139 18272098223276684060
13383661 66 9150356231767523676
13944108 23 18269280070967590521
14251764 30 9223240628283768933
14251764 75 18263646319468300232
14840074 17 18342171172713833469
14931854 50 18272101525758829608
15082195 135 18060127769765921959
15198563 99 17407679979014855470
15803439 3 16988012724853510796
18335252 114 18412544284909679708
21033648 29 17167866391285706136
21304303 94 12319440113176342182
21475661 188 18188212117163566440
21682296 61 10592047960234903521
21716022 299 15696611939722737110
23559900 14 17917428653983023111
25223398 141 17345454054949406182
27425 322 18409165515373907087
2838139 119 18408317804639942230
3411729 13 18335422374225905105
345986 75 12179833992448169214
3472631 163 18410011039809904499
34797466 226 18270402677619985943
394071 54 18338245873305779721
4046055 25 15118763534814223870
44802255 64 17627813112718641788
45266715 3 14836412428595190268
469060 322 15866302013268885686
484985 159 10196862031776209346
56616090 13 18264772228497230034
58260988 393 17973167510678337155
5951187 136 18338241466046510535
66674814 147 11311792695155668684
7288768 16 17606677187533478584

> <PUBCHEM_SHAPE_MULTIPOLES>
593.67
16.61
4.52
2.41
26.03
2.28
0.2
20.19
1.2
-8.06
1.06
-1.19
-2.38
-1.04

> <PUBCHEM_SHAPE_SELFOVERLAP>
1215.101

> <PUBCHEM_SHAPE_VOLUME>
344.5

> <PUBCHEM_COORDINATE_TYPE>
2
5
10

$$$$
