38031161
  -OEChem-12032416413D

 70 72  0     1  0  0  0  0  0999 V2000
    4.1863   -0.2085    0.4348 O   0  0  0  0  0  0  0  0  0  0  0  0
   -6.3486    3.0867   -0.4402 O   0  0  0  0  0  0  0  0  0  0  0  0
   -3.6002   -0.3530    0.5461 N   0  0  0  0  0  0  0  0  0  0  0  0
    3.1288    1.3140    1.6871 N   0  0  0  0  0  0  0  0  0  0  0  0
    4.2615    1.9062    1.1606 N   0  0  0  0  0  0  0  0  0  0  0  0
   -0.9679   -0.3440   -0.7444 C   0  0  1  0  0  0  0  0  0  0  0  0
   -1.6994   -1.6455   -0.3410 C   0  0  2  0  0  0  0  0  0  0  0  0
    0.2096   -0.0732    0.2026 C   0  0  0  0  0  0  0  0  0  0  0  0
    1.2245   -1.2348    0.2643 C   0  0  2  0  0  0  0  0  0  0  0  0
   -0.5041   -0.3933   -2.2066 C   0  0  0  0  0  0  0  0  0  0  0  0
   -2.6444   -1.4196    0.8437 C   0  0  0  0  0  0  0  0  0  0  0  0
   -0.7471   -2.7658   -0.0088 C   0  0  0  0  0  0  0  0  0  0  0  0
    0.5632   -2.6047    0.2525 C   0  0  0  0  0  0  0  0  0  0  0  0
   -4.1823    0.1763    1.7866 C   0  0  0  0  0  0  0  0  0  0  0  0
   -4.6452   -0.8386   -0.3651 C   0  0  0  0  0  0  0  0  0  0  0  0
   -6.2492    0.9028    0.5233 C   0  0  0  0  0  0  0  0  0  0  0  0
    2.1370   -1.0236    1.4789 C   0  0  0  0  0  0  0  0  0  0  0  0
   -5.1450    1.3298    1.4963 C   0  0  0  0  0  0  0  0  0  0  0  0
   -5.6231    0.2804   -0.7293 C   0  0  0  0  0  0  0  0  0  0  0  0
   -1.6808   -0.6978   -3.1281 C   0  0  0  0  0  0  0  0  0  0  0  0
    0.1631    0.9215   -2.5976 C   0  0  0  0  0  0  0  0  0  0  0  0
    1.4421   -3.8025    0.4872 C   0  0  0  0  0  0  0  0  0  0  0  0
   -7.1464    2.0827    0.1598 C   0  0  0  0  0  0  0  0  0  0  0  0
    3.1255    0.0809    1.2372 C   0  0  0  0  0  0  0  0  0  0  0  0
    4.8476    0.9811    0.4370 C   0  0  0  0  0  0  0  0  0  0  0  0
    6.0838    1.0544   -0.3518 C   0  0  0  0  0  0  0  0  0  0  0  0
    6.7487    2.4730   -0.2738 C   0  0  0  0  0  0  0  0  0  0  0  0
    5.8312    0.7580   -1.8715 C   0  0  0  0  0  0  0  0  0  0  0  0
    7.2307    0.0568    0.0601 C   0  0  0  0  0  0  0  0  0  0  0  0
   -1.6488    0.5125   -0.6622 H   0  0  0  0  0  0  0  0  0  0  0  0
   -2.3072   -2.0289   -1.1605 H   0  0  0  0  0  0  0  0  0  0  0  0
   -0.2030    0.0976    1.2066 H   0  0  0  0  0  0  0  0  0  0  0  0
    0.7154    0.8660   -0.0433 H   0  0  0  0  0  0  0  0  0  0  0  0
    1.8403   -1.1923   -0.6457 H   0  0  0  0  0  0  0  0  0  0  0  0
   -2.0438   -1.1478    1.7222 H   0  0  0  0  0  0  0  0  0  0  0  0
   -3.1625   -2.3498    1.1166 H   0  0  0  0  0  0  0  0  0  0  0  0
    0.2329   -1.1909   -2.3585 H   0  0  0  0  0  0  0  0  0  0  0  0
   -1.1723   -3.7673   -0.0046 H   0  0  0  0  0  0  0  0  0  0  0  0
   -3.3875    0.5584    2.4390 H   0  0  0  0  0  0  0  0  0  0  0  0
   -4.7074   -0.6134    2.3400 H   0  0  0  0  0  0  0  0  0  0  0  0
   -5.1992   -1.6733    0.0848 H   0  0  0  0  0  0  0  0  0  0  0  0
   -4.2205   -1.2045   -1.3043 H   0  0  0  0  0  0  0  0  0  0  0  0
   -6.8709    0.1419    1.0136 H   0  0  0  0  0  0  0  0  0  0  0  0
    2.7287   -1.9169    1.7058 H   0  0  0  0  0  0  0  0  0  0  0  0
    1.5546   -0.8043    2.3819 H   0  0  0  0  0  0  0  0  0  0  0  0
   -5.5901    1.6762    2.4367 H   0  0  0  0  0  0  0  0  0  0  0  0
   -4.5704    2.1715    1.0887 H   0  0  0  0  0  0  0  0  0  0  0  0
   -5.0887    1.0400   -1.3143 H   0  0  0  0  0  0  0  0  0  0  0  0
   -6.4104   -0.1226   -1.3778 H   0  0  0  0  0  0  0  0  0  0  0  0
   -2.5595   -0.0926   -2.8814 H   0  0  0  0  0  0  0  0  0  0  0  0
   -1.9593   -1.7553   -3.1169 H   0  0  0  0  0  0  0  0  0  0  0  0
   -1.4193   -0.4777   -4.1700 H   0  0  0  0  0  0  0  0  0  0  0  0
   -0.4658    1.7837   -2.3509 H   0  0  0  0  0  0  0  0  0  0  0  0
    0.3543    0.9519   -3.6763 H   0  0  0  0  0  0  0  0  0  0  0  0
    1.1363    1.0490   -2.1145 H   0  0  0  0  0  0  0  0  0  0  0  0
    0.9447   -4.7363    0.2023 H   0  0  0  0  0  0  0  0  0  0  0  0
    1.7128   -3.8872    1.5439 H   0  0  0  0  0  0  0  0  0  0  0  0
    2.3562   -3.7298   -0.1112 H   0  0  0  0  0  0  0  0  0  0  0  0
   -7.6227    2.4991    1.0535 H   0  0  0  0  0  0  0  0  0  0  0  0
   -7.9266    1.7799   -0.5459 H   0  0  0  0  0  0  0  0  0  0  0  0
   -6.9384    3.8271   -0.6619 H   0  0  0  0  0  0  0  0  0  0  0  0
    7.6570    2.5282   -0.8843 H   0  0  0  0  0  0  0  0  0  0  0  0
    6.0576    3.2455   -0.6310 H   0  0  0  0  0  0  0  0  0  0  0  0
    7.0181    2.7205    0.7596 H   0  0  0  0  0  0  0  0  0  0  0  0
    6.7488    0.8603   -2.4617 H   0  0  0  0  0  0  0  0  0  0  0  0
    5.4469   -0.2586   -2.0143 H   0  0  0  0  0  0  0  0  0  0  0  0
    5.0874    1.4521   -2.2798 H   0  0  0  0  0  0  0  0  0  0  0  0
    8.1218    0.1769   -0.5658 H   0  0  0  0  0  0  0  0  0  0  0  0
    7.5190    0.2191    1.1050 H   0  0  0  0  0  0  0  0  0  0  0  0
    6.8879   -0.9806   -0.0270 H   0  0  0  0  0  0  0  0  0  0  0  0
  1 24  1  0  0  0  0
  1 25  1  0  0  0  0
  2 23  1  0  0  0  0
  2 61  1  0  0  0  0
  3 11  1  0  0  0  0
  3 14  1  0  0  0  0
  3 15  1  0  0  0  0
  4  5  1  0  0  0  0
  4 24  2  0  0  0  0
  5 25  2  0  0  0  0
  6  7  1  0  0  0  0
  6  8  1  0  0  0  0
  6 10  1  0  0  0  0
  6 30  1  0  0  0  0
  7 11  1  0  0  0  0
  7 12  1  0  0  0  0
  7 31  1  0  0  0  0
  8  9  1  0  0  0  0
  8 32  1  0  0  0  0
  8 33  1  0  0  0  0
  9 13  1  0  0  0  0
  9 17  1  0  0  0  0
  9 34  1  0  0  0  0
 10 20  1  0  0  0  0
 10 21  1  0  0  0  0
 10 37  1  0  0  0  0
 11 35  1  0  0  0  0
 11 36  1  0  0  0  0
 12 13  2  0  0  0  0
 12 38  1  0  0  0  0
 13 22  1  0  0  0  0
 14 18  1  0  0  0  0
 14 39  1  0  0  0  0
 14 40  1  0  0  0  0
 15 19  1  0  0  0  0
 15 41  1  0  0  0  0
 15 42  1  0  0  0  0
 16 18  1  0  0  0  0
 16 19  1  0  0  0  0
 16 23  1  0  0  0  0
 16 43  1  0  0  0  0
 17 24  1  0  0  0  0
 17 44  1  0  0  0  0
 17 45  1  0  0  0  0
 18 46  1  0  0  0  0
 18 47  1  0  0  0  0
 19 48  1  0  0  0  0
 19 49  1  0  0  0  0
 20 50  1  0  0  0  0
 20 51  1  0  0  0  0
 20 52  1  0  0  0  0
 21 53  1  0  0  0  0
 21 54  1  0  0  0  0
 21 55  1  0  0  0  0
 22 56  1  0  0  0  0
 22 57  1  0  0  0  0
 22 58  1  0  0  0  0
 23 59  1  0  0  0  0
 23 60  1  0  0  0  0
 25 26  1  0  0  0  0
 26 27  1  0  0  0  0
 26 28  1  0  0  0  0
 26 29  1  0  0  0  0
 27 62  1  0  0  0  0
 27 63  1  0  0  0  0
 27 64  1  0  0  0  0
 28 65  1  0  0  0  0
 28 66  1  0  0  0  0
 28 67  1  0  0  0  0
 29 68  1  0  0  0  0
 29 69  1  0  0  0  0
 29 70  1  0  0  0  0
M  END
> <PUBCHEM_COMPOUND_CID>
38031161

> <PUBCHEM_CONFORMER_RMSD>
1

> <PUBCHEM_CONFORMER_DIVERSEORDER>
19
62
25
57
26
64
13
40
77
76
16
39
34
23
33
78
69
79
67
2
44
61
22
6
74
30
46
11
37
31
72
36
51
27
10
49
58
73
18
41
38
7
70
8
24
75
55
66
20
59
5
42
47
35
71
14
12
43
63
15
4
50
28
21
3
45
65
60
52
1
17
29
9
68
56
54
53
32
48

> <PUBCHEM_MMFF94_PARTIAL_CHARGES>
20
1 -0.28
11 0.27
12 -0.29
13 -0.28
14 0.27
15 0.27
17 0.18
2 -0.68
22 0.14
23 0.28
24 0.3
25 0.3
26 0.18
3 -0.81
38 0.15
4 -0.34
5 -0.34
61 0.4
7 0.14
9 0.14

> <PUBCHEM_EFFECTIVE_ROTOR_COUNT>
9

> <PUBCHEM_PHARMACOPHORE_FEATURES>
8
1 2 acceptor
1 2 donor
1 3 cation
3 10 20 21 hydrophobe
4 26 27 28 29 hydrophobe
5 1 4 5 24 25 rings
6 3 14 15 16 18 19 rings
6 6 7 8 9 12 13 rings

> <PUBCHEM_HEAVY_ATOM_COUNT>
29

> <PUBCHEM_ATOM_DEF_STEREO_COUNT>
3

> <PUBCHEM_ATOM_UDEF_STEREO_COUNT>
0

> <PUBCHEM_BOND_DEF_STEREO_COUNT>
0

> <PUBCHEM_BOND_UDEF_STEREO_COUNT>
0

> <PUBCHEM_ISOTOPIC_ATOM_COUNT>
0

> <PUBCHEM_COMPONENT_COUNT>
1

> <PUBCHEM_CACTVS_TAUTO_COUNT>
1

> <PUBCHEM_CONFORMER_ID>
02444F3900000013

> <PUBCHEM_MMFF94_ENERGY>
51.718

> <PUBCHEM_FEATURE_SELFOVERLAP>
40.596

> <PUBCHEM_SHAPE_FINGERPRINT>
10 15 18187369814300687721
10006869 2 18198616636425049553
10165383 225 18408323289788160154
10670039 82 16343707595374286137
10674148 151 18342176679378487912
10906281 52 17603597321703146591
11297750 10 17172922826018951854
11578080 2 18118115880139782957
11991303 11 16845283990906988909
12166972 35 12463575088710122962
12422481 6 17167861980164493286
12633257 1 16515693251741635203
13165053 103 12318920040003400189
14251751 18 11674875598117005547
14790565 3 18335985388466770184
14840074 17 17530965834287887598
14951699 99 18260833636102501237
15142383 8 18130788963199995664
15183329 4 16272218487455124488
15961568 22 18131355168348672785
17349148 13 12319192749383972490
17852330 162 14403750277500594928
17980427 23 18040718095680725631
190975 80 13479143427226392665
19377110 9 13695587728709081158
19958102 18 15267346231849212468
20105231 36 13254502194973836709
20567600 247 8502366729196782993
20642791 268 18041001743652269487
20721686 146 18334577902241355909
20775438 99 13108665162033013625
21344244 181 11815314036954263173
21344244 246 14189308023087898580
21521239 73 12823290187260683229
21756936 100 18201710812443053986
21781051 124 15051723227588786143
22121540 332 18191305970568628485
23559900 14 13614225036195156930
2838139 119 17489590069273635873
3411729 13 18335420110657100491
3729539 64 15051466980658920246
38570 142 18202568375525137379
392239 28 15068621634206131888
4015057 19 11887666325472290250
4058900 60 18336834104180098931
4112364 45 17968958482063165501
439807 62 10591754394919980241
5252454 2 18261939852163624978
552612 73 17970626290287231182
56638632 10 18335690702582426141
5718773 13 9799694792033409560
57527293 21 17603575322823096003
58260988 393 14707198895049416180
59682541 52 16558755585640389732
59755656 520 18342734147830520263
6328613 192 18340492278471885760
633830 44 18129932516234175186
6608658 132 17632293441765381105
9689198 14 18114190752298215336

> <PUBCHEM_SHAPE_MULTIPOLES>
570.12
18.1
2.96
2.07
2.94
1.37
1.56
-17.48
-2.22
-0.46
-0.39
-0.29
-0.29
-0.62

> <PUBCHEM_SHAPE_SELFOVERLAP>
1164.343

> <PUBCHEM_SHAPE_VOLUME>
331

> <PUBCHEM_COORDINATE_TYPE>
2
5
10

$$$$
