75368414
  -OEChem-12032416393D

 32 34  0     1  0  0  0  0  0999 V2000
   -4.9672    0.1363    0.1643 O   0  0  0  0  0  0  0  0  0  0  0  0
    1.5866    2.5733    0.2607 O   0  0  0  0  0  0  0  0  0  0  0  0
   -2.6142    0.1525    0.2185 N   0  0  0  0  0  0  0  0  0  0  0  0
   -0.0305    1.0007   -0.3491 N   0  0  0  0  0  0  0  0  0  0  0  0
   -3.6728   -1.7937   -0.1593 N   0  0  0  0  0  0  0  0  0  0  0  0
    4.0738   -0.8176   -1.0690 N   0  0  0  0  0  0  0  0  0  0  0  0
   -1.5563   -0.8430    0.1870 C   0  0  2  0  0  0  0  0  0  0  0  0
   -0.4193   -0.3752   -0.7156 C   0  0  0  0  0  0  0  0  0  0  0  0
   -2.2678   -2.1083   -0.2820 C   0  0  0  0  0  0  0  0  0  0  0  0
   -2.2910    1.5454    0.4740 C   0  0  0  0  0  0  0  0  0  0  0  0
   -1.1234    1.9815   -0.4095 C   0  0  0  0  0  0  0  0  0  0  0  0
   -3.8824   -0.4244    0.0884 C   0  0  0  0  0  0  0  0  0  0  0  0
    1.2565    1.4191   -0.0072 C   0  0  0  0  0  0  0  0  0  0  0  0
    2.3190    0.4073    0.0557 C   0  0  0  0  0  0  0  0  0  0  0  0
    2.5920   -0.2724    1.2375 C   0  0  0  0  0  0  0  0  0  0  0  0
    3.0818    0.1007   -1.0597 C   0  0  0  0  0  0  0  0  0  0  0  0
    3.6051   -1.2243    1.2676 C   0  0  0  0  0  0  0  0  0  0  0  0
    4.3102   -1.4579    0.0979 C   0  0  0  0  0  0  0  0  0  0  0  0
   -1.2021   -0.9607    1.2191 H   0  0  0  0  0  0  0  0  0  0  0  0
    0.4190   -1.0720   -0.6537 H   0  0  0  0  0  0  0  0  0  0  0  0
   -0.7377   -0.3383   -1.7649 H   0  0  0  0  0  0  0  0  0  0  0  0
   -2.0689   -2.3497   -1.3307 H   0  0  0  0  0  0  0  0  0  0  0  0
   -2.0331   -2.9767    0.3395 H   0  0  0  0  0  0  0  0  0  0  0  0
   -2.0158    1.6188    1.5322 H   0  0  0  0  0  0  0  0  0  0  0  0
   -3.1744    2.1688    0.3060 H   0  0  0  0  0  0  0  0  0  0  0  0
   -1.4406    2.0393   -1.4576 H   0  0  0  0  0  0  0  0  0  0  0  0
   -0.7773    2.9760   -0.1116 H   0  0  0  0  0  0  0  0  0  0  0  0
   -4.4232   -2.4599   -0.3123 H   0  0  0  0  0  0  0  0  0  0  0  0
    2.0209   -0.0681    2.1392 H   0  0  0  0  0  0  0  0  0  0  0  0
    2.9151    0.5979   -2.0105 H   0  0  0  0  0  0  0  0  0  0  0  0
    3.8351   -1.7666    2.1775 H   0  0  0  0  0  0  0  0  0  0  0  0
    5.1099   -2.1906    0.0686 H   0  0  0  0  0  0  0  0  0  0  0  0
  1 12  2  0  0  0  0
  2 13  2  0  0  0  0
  3  7  1  0  0  0  0
  3 10  1  0  0  0  0
  3 12  1  0  0  0  0
  4  8  1  0  0  0  0
  4 11  1  0  0  0  0
  4 13  1  0  0  0  0
  5  9  1  0  0  0  0
  5 12  1  0  0  0  0
  5 28  1  0  0  0  0
  6 16  1  0  0  0  0
  6 18  2  0  0  0  0
  7  8  1  0  0  0  0
  7  9  1  0  0  0  0
  7 19  1  0  0  0  0
  8 20  1  0  0  0  0
  8 21  1  0  0  0  0
  9 22  1  0  0  0  0
  9 23  1  0  0  0  0
 10 11  1  0  0  0  0
 10 24  1  0  0  0  0
 10 25  1  0  0  0  0
 11 26  1  0  0  0  0
 11 27  1  0  0  0  0
 13 14  1  0  0  0  0
 14 15  1  0  0  0  0
 14 16  2  0  0  0  0
 15 17  2  0  0  0  0
 15 29  1  0  0  0  0
 16 30  1  0  0  0  0
 17 18  1  0  0  0  0
 17 31  1  0  0  0  0
 18 32  1  0  0  0  0
M  END
> <PUBCHEM_COMPOUND_CID>
75368414

> <PUBCHEM_CONFORMER_RMSD>
0.6

> <PUBCHEM_CONFORMER_DIVERSEORDER>
1
20
13
9
8
17
3
15
7
14
10
18
11
16
19
2
4
5
12
6

> <PUBCHEM_MMFF94_PARTIAL_CHARGES>
23
1 -0.57
10 0.3
11 0.3
12 0.69
13 0.54
14 0.09
15 -0.15
16 0.16
17 -0.15
18 0.16
2 -0.57
28 0.37
29 0.15
3 -0.66
30 0.15
31 0.15
32 0.15
4 -0.66
5 -0.73
6 -0.62
7 0.3
8 0.3
9 0.3

> <PUBCHEM_EFFECTIVE_ROTOR_COUNT>
3.2

> <PUBCHEM_PHARMACOPHORE_FEATURES>
7
1 1 acceptor
1 2 acceptor
1 5 donor
1 6 acceptor
5 3 5 7 9 12 rings
6 3 4 7 8 10 11 rings
6 6 14 15 16 17 18 rings

> <PUBCHEM_HEAVY_ATOM_COUNT>
18

> <PUBCHEM_ATOM_DEF_STEREO_COUNT>
1

> <PUBCHEM_ATOM_UDEF_STEREO_COUNT>
0

> <PUBCHEM_BOND_DEF_STEREO_COUNT>
0

> <PUBCHEM_BOND_UDEF_STEREO_COUNT>
0

> <PUBCHEM_ISOTOPIC_ATOM_COUNT>
0

> <PUBCHEM_COMPONENT_COUNT>
1

> <PUBCHEM_CACTVS_TAUTO_COUNT>
2

> <PUBCHEM_CONFORMER_ID>
047E07DE00000001

> <PUBCHEM_MMFF94_ENERGY>
50.2362

> <PUBCHEM_FEATURE_SELFOVERLAP>
35.62

> <PUBCHEM_SHAPE_FINGERPRINT>
10062212 137 18342735265212892647
10618630 7 18409164428614422084
11543360 7 15574720230632316715
11578080 2 17677870423551134084
12236239 1 17822295639587799518
12251169 10 18341891904716835481
12346177 29 18272640225983136109
12553582 1 18335414664690946034
12633257 1 18201168684628006417
13140716 1 18340485685543663731
13583140 156 14764336163374583471
13862211 1 18412260654097152887
14115302 16 17676215692493824118
14251764 38 14333140628280563115
15196674 1 18411419557270478279
15239191 94 18261109681680990586
15375462 189 18186522068738382458
15442244 35 18411702105725522225
15536298 74 18340766056339187488
15885798 251 18409728460968414113
16752209 62 18261940852610994445
16945 1 18411980234970078085
17349148 13 18131634513047231231
17492 89 18124595533737618551
17804303 29 18413110550082175969
1813 80 17676494908291240390
18186145 218 17895184562979021335
18915474 69 18187089455498788142
19422 9 18260554390007542988
200 152 16805321063874216034
20281475 54 18407759235637584740
20291156 8 18335701667121540731
20442098 301 18200589314845950198
20645477 70 18338231699406950055
21267235 1 18336837419699528931
21634736 98 18260835938030378748
2255824 54 18115028644509191580
22646028 28 18333730204387420514
23184049 29 18411695530083073784
23402539 116 18202275889011707933
23463225 33 18410011082711747509
23559900 14 18272933855633157896
23598291 2 17750529385950598964
328317 168 9223224143961643363
335352 9 18411420584047341237
4325135 7 18333733525214636076
465052 167 18409458002736006351
5104073 3 18270123534446650923
559249 180 17970340408832537898
5902787 121 18411697673688466440
7364860 26 18198905992899097216
74978 22 18338517542180582807
9709674 26 18193276518833695827

> <PUBCHEM_SHAPE_MULTIPOLES>
338.77
8.57
2.17
0.97
0.93
0.53
-0.05
-3.99
-0.36
0.46
-0.02
-0.91
-0.13
-0.39

> <PUBCHEM_SHAPE_SELFOVERLAP>
727.11

> <PUBCHEM_SHAPE_VOLUME>
185.1

> <PUBCHEM_COORDINATE_TYPE>
2
5
10

$$$$
