38027513
  -OEChem-12032416143D

 73 75  0     1  0  0  0  0  0999 V2000
   -3.6060    2.3411    1.1076 S   0  0  0  0  0  0  0  0  0  0  0  0
    5.7480   -0.4039   -1.6340 F   0  0  0  0  0  0  0  0  0  0  0  0
    0.5074   -4.3188    0.5252 O   0  0  0  0  0  0  0  0  0  0  0  0
   -3.9341    2.2985    2.5198 O   0  0  0  0  0  0  0  0  0  0  0  0
   -4.2469    3.3095    0.2387 O   0  0  0  0  0  0  0  0  0  0  0  0
    2.5111    4.1880   -1.5046 O   0  0  0  0  0  0  0  0  0  0  0  0
   -3.7908    0.7843    0.4404 N   0  0  0  0  0  0  0  0  0  0  0  0
    0.9827   -2.5260    1.9254 N   0  0  0  0  0  0  0  0  0  0  0  0
    2.2662    3.1812    0.6131 N   0  0  0  0  0  0  0  0  0  0  0  0
   -1.9004   -0.7054   -1.3446 C   0  0  1  0  0  0  0  0  0  0  0  0
   -3.4448   -0.7119   -1.4650 C   0  0  1  0  0  0  0  0  0  0  0  0
   -1.3524   -2.1397   -1.3973 C   0  0  0  0  0  0  0  0  0  0  0  0
   -1.9258   -3.0240   -0.2740 C   0  0  2  0  0  0  0  0  0  0  0  0
   -1.2478    0.1398   -2.4430 C   0  0  0  0  0  0  0  0  0  0  0  0
   -3.4292   -2.8780   -0.1543 C   0  0  0  0  0  0  0  0  0  0  0  0
   -4.0923   -1.8453   -0.7045 C   0  0  0  0  0  0  0  0  0  0  0  0
   -4.0415    0.6215   -1.0001 C   0  0  0  0  0  0  0  0  0  0  0  0
   -1.2379   -2.7323    1.0642 C   0  0  0  0  0  0  0  0  0  0  0  0
    0.2613    0.2124   -2.2328 C   0  0  0  0  0  0  0  0  0  0  0  0
   -1.5756   -0.4311   -3.8189 C   0  0  0  0  0  0  0  0  0  0  0  0
   -4.1598   -3.9715    0.5742 C   0  0  0  0  0  0  0  0  0  0  0  0
    0.1618   -3.3016    1.1200 C   0  0  0  0  0  0  0  0  0  0  0  0
   -1.8622    2.5905    0.9607 C   0  0  0  0  0  0  0  0  0  0  0  0
    2.3743   -2.8342    2.1629 C   0  0  0  0  0  0  0  0  0  0  0  0
   -1.3360    3.1767   -0.1906 C   0  0  0  0  0  0  0  0  0  0  0  0
   -1.0123    2.2013    1.9960 C   0  0  0  0  0  0  0  0  0  0  0  0
    3.2740   -2.1862    1.1505 C   0  0  0  0  0  0  0  0  0  0  0  0
    0.0400    3.3735   -0.3064 C   0  0  0  0  0  0  0  0  0  0  0  0
    0.3636    2.3981    1.8802 C   0  0  0  0  0  0  0  0  0  0  0  0
    0.8899    2.9843    0.7290 C   0  0  0  0  0  0  0  0  0  0  0  0
    3.5972   -2.8596   -0.0276 C   0  0  0  0  0  0  0  0  0  0  0  0
    3.7868   -0.9111    1.3881 C   0  0  0  0  0  0  0  0  0  0  0  0
    4.4334   -2.2578   -0.9680 C   0  0  0  0  0  0  0  0  0  0  0  0
    4.6229   -0.3092    0.4479 C   0  0  0  0  0  0  0  0  0  0  0  0
    4.9463   -0.9826   -0.7302 C   0  0  0  0  0  0  0  0  0  0  0  0
    2.9721    3.7484   -0.4562 C   0  0  0  0  0  0  0  0  0  0  0  0
    4.4566    3.7810   -0.1917 C   0  0  0  0  0  0  0  0  0  0  0  0
   -1.6117   -0.2716   -0.3801 H   0  0  0  0  0  0  0  0  0  0  0  0
   -3.7618   -0.8645   -2.4996 H   0  0  0  0  0  0  0  0  0  0  0  0
   -0.2602   -2.1653   -1.3429 H   0  0  0  0  0  0  0  0  0  0  0  0
   -1.6281   -2.6220   -2.3426 H   0  0  0  0  0  0  0  0  0  0  0  0
   -1.7240   -4.0644   -0.5641 H   0  0  0  0  0  0  0  0  0  0  0  0
   -1.6311    1.1641   -2.3981 H   0  0  0  0  0  0  0  0  0  0  0  0
   -5.1775   -1.8163   -0.6263 H   0  0  0  0  0  0  0  0  0  0  0  0
   -5.1264    0.6292   -1.1597 H   0  0  0  0  0  0  0  0  0  0  0  0
   -3.6242    1.4546   -1.5710 H   0  0  0  0  0  0  0  0  0  0  0  0
   -1.7755   -3.2055    1.8948 H   0  0  0  0  0  0  0  0  0  0  0  0
   -1.2289   -1.6579    1.2771 H   0  0  0  0  0  0  0  0  0  0  0  0
    0.7749   -0.7071   -2.5311 H   0  0  0  0  0  0  0  0  0  0  0  0
    0.5160    0.4277   -1.1905 H   0  0  0  0  0  0  0  0  0  0  0  0
    0.6837    1.0167   -2.8462 H   0  0  0  0  0  0  0  0  0  0  0  0
   -1.1931   -1.4419   -3.9802 H   0  0  0  0  0  0  0  0  0  0  0  0
   -1.0905    0.1912   -4.5823 H   0  0  0  0  0  0  0  0  0  0  0  0
   -2.6385   -0.4075   -4.0649 H   0  0  0  0  0  0  0  0  0  0  0  0
   -3.9263   -4.9452    0.1312 H   0  0  0  0  0  0  0  0  0  0  0  0
   -5.2465   -3.8426    0.5257 H   0  0  0  0  0  0  0  0  0  0  0  0
   -3.8803   -3.9935    1.6313 H   0  0  0  0  0  0  0  0  0  0  0  0
   -4.1329    0.0380    1.0577 H   0  0  0  0  0  0  0  0  0  0  0  0
    0.6076   -1.6935    2.3705 H   0  0  0  0  0  0  0  0  0  0  0  0
    2.5132   -3.9218    2.1559 H   0  0  0  0  0  0  0  0  0  0  0  0
    2.6206   -2.4888    3.1734 H   0  0  0  0  0  0  0  0  0  0  0  0
   -1.9791    3.4818   -1.0112 H   0  0  0  0  0  0  0  0  0  0  0  0
   -1.4010    1.7358    2.8972 H   0  0  0  0  0  0  0  0  0  0  0  0
    0.3731    3.8296   -1.2281 H   0  0  0  0  0  0  0  0  0  0  0  0
    1.0145    2.0870    2.6934 H   0  0  0  0  0  0  0  0  0  0  0  0
    3.2072   -3.8542   -0.2252 H   0  0  0  0  0  0  0  0  0  0  0  0
    3.5402   -0.3748    2.3006 H   0  0  0  0  0  0  0  0  0  0  0  0
    2.8136    2.8616    1.4095 H   0  0  0  0  0  0  0  0  0  0  0  0
    4.6853   -2.7816   -1.8853 H   0  0  0  0  0  0  0  0  0  0  0  0
    5.0227    0.6829    0.6339 H   0  0  0  0  0  0  0  0  0  0  0  0
    4.9244    2.9245   -0.6843 H   0  0  0  0  0  0  0  0  0  0  0  0
    4.6828    3.7494    0.8775 H   0  0  0  0  0  0  0  0  0  0  0  0
    4.8732    4.7057   -0.6010 H   0  0  0  0  0  0  0  0  0  0  0  0
  1  4  2  0  0  0  0
  1  5  2  0  0  0  0
  1  7  1  0  0  0  0
  1 23  1  0  0  0  0
  2 35  1  0  0  0  0
  3 22  2  0  0  0  0
  6 36  2  0  0  0  0
  7 17  1  0  0  0  0
  7 58  1  0  0  0  0
  8 22  1  0  0  0  0
  8 24  1  0  0  0  0
  8 59  1  0  0  0  0
  9 30  1  0  0  0  0
  9 36  1  0  0  0  0
  9 68  1  0  0  0  0
 10 11  1  0  0  0  0
 10 12  1  0  0  0  0
 10 14  1  0  0  0  0
 10 38  1  0  0  0  0
 11 16  1  0  0  0  0
 11 17  1  0  0  0  0
 11 39  1  0  0  0  0
 12 13  1  0  0  0  0
 12 40  1  0  0  0  0
 12 41  1  0  0  0  0
 13 15  1  0  0  0  0
 13 18  1  0  0  0  0
 13 42  1  0  0  0  0
 14 19  1  0  0  0  0
 14 20  1  0  0  0  0
 14 43  1  0  0  0  0
 15 16  2  0  0  0  0
 15 21  1  0  0  0  0
 16 44  1  0  0  0  0
 17 45  1  0  0  0  0
 17 46  1  0  0  0  0
 18 22  1  0  0  0  0
 18 47  1  0  0  0  0
 18 48  1  0  0  0  0
 19 49  1  0  0  0  0
 19 50  1  0  0  0  0
 19 51  1  0  0  0  0
 20 52  1  0  0  0  0
 20 53  1  0  0  0  0
 20 54  1  0  0  0  0
 21 55  1  0  0  0  0
 21 56  1  0  0  0  0
 21 57  1  0  0  0  0
 23 25  2  0  0  0  0
 23 26  1  0  0  0  0
 24 27  1  0  0  0  0
 24 60  1  0  0  0  0
 24 61  1  0  0  0  0
 25 28  1  0  0  0  0
 25 62  1  0  0  0  0
 26 29  2  0  0  0  0
 26 63  1  0  0  0  0
 27 31  2  0  0  0  0
 27 32  1  0  0  0  0
 28 30  2  0  0  0  0
 28 64  1  0  0  0  0
 29 30  1  0  0  0  0
 29 65  1  0  0  0  0
 31 33  1  0  0  0  0
 31 66  1  0  0  0  0
 32 34  2  0  0  0  0
 32 67  1  0  0  0  0
 33 35  2  0  0  0  0
 33 69  1  0  0  0  0
 34 35  1  0  0  0  0
 34 70  1  0  0  0  0
 36 37  1  0  0  0  0
 37 71  1  0  0  0  0
 37 72  1  0  0  0  0
 37 73  1  0  0  0  0
M  END
> <PUBCHEM_COMPOUND_CID>
38027513

> <PUBCHEM_CONFORMER_RMSD>
1.6

> <PUBCHEM_CONFORMER_DIVERSEORDER>
1
135
28
49
41
89
5
50
118
123
108
11
82
79
76
44
55
27
77
46
67
106
66
121
142
120
139
4
126
75
98
93
32
6
85
87
107
15
34
127
47
101
113
124
23
100
78
111
60
12
73
69
95
130
104
26
22
96
71
52
105
13
48
133
65
17
92
137
134
31
33
59
30
103
110
114
63
57
58
24
125
117
132
84
91
35
70
136
138
122
53
9
14
97
7
128
62
81
21
18
141
42
61
102
19
86
129
112
68
140
8
43
119
88
99
20
56
54
16
25
40
2
116
29
64
38
115
83
74
90
80
37
36
109
72
10
51
131
39
94
143
3
45

> <PUBCHEM_MMFF94_PARTIAL_CHARGES>
44
1 1.45
11 0.14
13 0.14
15 -0.28
16 -0.29
17 0.36
18 0.06
2 -0.19
21 0.14
22 0.57
23 -0.01
24 0.44
25 -0.15
26 -0.15
27 -0.14
28 -0.15
29 -0.15
3 -0.57
30 0.12
31 -0.15
32 -0.15
33 -0.15
34 -0.15
35 0.19
36 0.57
37 0.06
4 -0.65
44 0.15
5 -0.65
58 0.42
59 0.37
6 -0.57
62 0.15
63 0.15
64 0.15
65 0.15
66 0.15
67 0.15
68 0.37
69 0.15
7 -0.91
70 0.15
8 -0.73
9 -0.55

> <PUBCHEM_EFFECTIVE_ROTOR_COUNT>
12.8

> <PUBCHEM_PHARMACOPHORE_FEATURES>
11
1 3 acceptor
1 4 acceptor
1 5 acceptor
1 6 acceptor
1 7 donor
1 8 donor
1 9 donor
3 14 19 20 hydrophobe
6 10 11 12 13 15 16 rings
6 23 25 26 28 29 30 rings
6 27 31 32 33 34 35 rings

> <PUBCHEM_HEAVY_ATOM_COUNT>
37

> <PUBCHEM_ATOM_DEF_STEREO_COUNT>
3

> <PUBCHEM_ATOM_UDEF_STEREO_COUNT>
0

> <PUBCHEM_BOND_DEF_STEREO_COUNT>
0

> <PUBCHEM_BOND_UDEF_STEREO_COUNT>
0

> <PUBCHEM_ISOTOPIC_ATOM_COUNT>
0

> <PUBCHEM_COMPONENT_COUNT>
1

> <PUBCHEM_CACTVS_TAUTO_COUNT>
4

> <PUBCHEM_CONFORMER_ID>
024440F900000001

> <PUBCHEM_MMFF94_ENERGY>
70.9207

> <PUBCHEM_FEATURE_SELFOVERLAP>
55.84

> <PUBCHEM_SHAPE_FINGERPRINT>
12156800 1 17839786691668245811
12786520 15 16951385689892549644
13615921 28 18342449374576902087
13761468 95 17901944145898260710
14279260 333 18197500826251181116
14840074 17 18122917425627089233
15001296 14 18408317804560983553
15351339 4 18265607869654830456
15406563 228 17825398633638783572
15975801 100 17329735123575978470
16067690 210 18201165351849598180
161222 10 18125742114159372076
20764821 26 17257923222740979208
35225 105 18048616823552197646
463206 1 18411143541445868032
469060 322 17977080397846260513
50150288 127 17701291167614767736

> <PUBCHEM_SHAPE_MULTIPOLES>
719.6
9.61
6.95
2.53
6.29
1.96
-1.19
-1.59
-1
1.06
2.22
-0.78
-0.01
-1.98

> <PUBCHEM_SHAPE_SELFOVERLAP>
1490.318

> <PUBCHEM_SHAPE_VOLUME>
414.4

> <PUBCHEM_COORDINATE_TYPE>
2
5
10

$$$$
