28962187
  -OEChem-12032416143D

 60 62  0     1  0  0  0  0  0999 V2000
    1.1819   -1.7262    2.0202 S   0  0  0  0  0  0  0  0  0  0  0  0
    1.6773    2.6981    1.2203 O   0  0  0  0  0  0  0  0  0  0  0  0
    1.6748    2.6428   -1.7739 O   0  0  0  0  0  0  0  0  0  0  0  0
    4.0002    4.2807    1.2837 O   0  0  0  0  0  0  0  0  0  0  0  0
   -0.2337   -2.0425    2.0035 O   0  0  0  0  0  0  0  0  0  0  0  0
    2.0058   -2.1286    3.1439 O   0  0  0  0  0  0  0  0  0  0  0  0
   -1.0744    2.1280   -1.1426 N   0  0  1  0  0  0  0  0  0  0  0  0
    1.3893   -0.0586    1.7482 N   0  0  0  0  0  0  0  0  0  0  0  0
   -0.1991    2.8506   -0.2365 C   0  0  1  0  0  0  0  0  0  0  0  0
    0.4413    2.0271    0.8884 C   0  0  1  0  0  0  0  0  0  0  0  0
    0.9965    3.5261   -0.8902 C   0  0  1  0  0  0  0  0  0  0  0  0
    1.8576    3.8185    0.3328 C   0  0  2  0  0  0  0  0  0  0  0  0
    0.7868    0.5782    0.5633 C   0  0  0  0  0  0  0  0  0  0  0  0
    3.3386    4.0071    0.0591 C   0  0  0  0  0  0  0  0  0  0  0  0
   -2.1573    1.4677   -0.4067 C   0  0  0  0  0  0  0  0  0  0  0  0
   -1.6324    3.0273   -2.1575 C   0  0  0  0  0  0  0  0  0  0  0  0
   -2.8034    0.3691   -1.2515 C   0  0  0  0  0  0  0  0  0  0  0  0
   -3.9338   -0.3035   -0.5143 C   0  0  0  0  0  0  0  0  0  0  0  0
    1.9128   -2.4221    0.5689 C   0  0  0  0  0  0  0  0  0  0  0  0
   -3.6809   -1.4210    0.2815 C   0  0  0  0  0  0  0  0  0  0  0  0
   -5.2327    0.1918   -0.6282 C   0  0  0  0  0  0  0  0  0  0  0  0
    3.2712   -2.7384    0.5559 C   0  0  0  0  0  0  0  0  0  0  0  0
    1.1319   -2.6524   -0.5638 C   0  0  0  0  0  0  0  0  0  0  0  0
   -4.7268   -2.0431    0.9632 C   0  0  0  0  0  0  0  0  0  0  0  0
   -6.2786   -0.4301    0.0537 C   0  0  0  0  0  0  0  0  0  0  0  0
    3.8489   -3.2849   -0.5901 C   0  0  0  0  0  0  0  0  0  0  0  0
    1.7097   -3.1988   -1.7097 C   0  0  0  0  0  0  0  0  0  0  0  0
   -6.0257   -1.5476    0.8493 C   0  0  0  0  0  0  0  0  0  0  0  0
    3.0682   -3.5153   -1.7228 C   0  0  0  0  0  0  0  0  0  0  0  0
    3.6860   -4.0998   -2.9480 C   0  0  0  0  0  0  0  0  0  0  0  0
   -0.7775    3.6478    0.2582 H   0  0  0  0  0  0  0  0  0  0  0  0
   -0.1902    2.0555    1.7853 H   0  0  0  0  0  0  0  0  0  0  0  0
    0.7405    4.4401   -1.4356 H   0  0  0  0  0  0  0  0  0  0  0  0
    1.4661    4.6908    0.8720 H   0  0  0  0  0  0  0  0  0  0  0  0
    1.5365    0.5374   -0.2343 H   0  0  0  0  0  0  0  0  0  0  0  0
   -0.0779   -0.0017    0.2441 H   0  0  0  0  0  0  0  0  0  0  0  0
    3.5083    4.8406   -0.6292 H   0  0  0  0  0  0  0  0  0  0  0  0
    3.7877    3.0967   -0.3503 H   0  0  0  0  0  0  0  0  0  0  0  0
   -1.8381    1.0169    0.5370 H   0  0  0  0  0  0  0  0  0  0  0  0
   -2.9156    2.2066   -0.1088 H   0  0  0  0  0  0  0  0  0  0  0  0
   -2.2723    2.4986   -2.8696 H   0  0  0  0  0  0  0  0  0  0  0  0
   -0.8431    3.4715   -2.7727 H   0  0  0  0  0  0  0  0  0  0  0  0
   -2.2176    3.8412   -1.7134 H   0  0  0  0  0  0  0  0  0  0  0  0
    2.3573    3.1571   -2.2375 H   0  0  0  0  0  0  0  0  0  0  0  0
    2.2303    0.3978    2.1230 H   0  0  0  0  0  0  0  0  0  0  0  0
   -2.0526   -0.3833   -1.5280 H   0  0  0  0  0  0  0  0  0  0  0  0
   -3.2003    0.7518   -2.1980 H   0  0  0  0  0  0  0  0  0  0  0  0
    4.9433    4.4004    1.0791 H   0  0  0  0  0  0  0  0  0  0  0  0
   -2.6733   -1.8159    0.3774 H   0  0  0  0  0  0  0  0  0  0  0  0
   -5.4421    1.0629   -1.2434 H   0  0  0  0  0  0  0  0  0  0  0  0
    3.8995   -2.5607    1.4239 H   0  0  0  0  0  0  0  0  0  0  0  0
    0.0726   -2.4116   -0.5767 H   0  0  0  0  0  0  0  0  0  0  0  0
   -4.5297   -2.9130    1.5827 H   0  0  0  0  0  0  0  0  0  0  0  0
   -7.2900   -0.0440   -0.0345 H   0  0  0  0  0  0  0  0  0  0  0  0
    4.9084   -3.5272   -0.5882 H   0  0  0  0  0  0  0  0  0  0  0  0
    1.0908   -3.3745   -2.5855 H   0  0  0  0  0  0  0  0  0  0  0  0
   -6.8401   -2.0317    1.3802 H   0  0  0  0  0  0  0  0  0  0  0  0
    3.6255   -5.1921   -2.9146 H   0  0  0  0  0  0  0  0  0  0  0  0
    3.1788   -3.7477   -3.8527 H   0  0  0  0  0  0  0  0  0  0  0  0
    4.7382   -3.8089   -3.0372 H   0  0  0  0  0  0  0  0  0  0  0  0
  1  5  2  0  0  0  0
  1  6  2  0  0  0  0
  1  8  1  0  0  0  0
  1 19  1  0  0  0  0
  2 10  1  0  0  0  0
  2 12  1  0  0  0  0
  3 11  1  0  0  0  0
  3 44  1  0  0  0  0
  4 14  1  0  0  0  0
  4 48  1  0  0  0  0
  7  9  1  0  0  0  0
  7 15  1  0  0  0  0
  7 16  1  0  0  0  0
  8 13  1  0  0  0  0
  8 45  1  0  0  0  0
  9 10  1  0  0  0  0
  9 11  1  0  0  0  0
  9 31  1  0  0  0  0
 10 13  1  0  0  0  0
 10 32  1  0  0  0  0
 11 12  1  0  0  0  0
 11 33  1  0  0  0  0
 12 14  1  0  0  0  0
 12 34  1  0  0  0  0
 13 35  1  0  0  0  0
 13 36  1  0  0  0  0
 14 37  1  0  0  0  0
 14 38  1  0  0  0  0
 15 17  1  0  0  0  0
 15 39  1  0  0  0  0
 15 40  1  0  0  0  0
 16 41  1  0  0  0  0
 16 42  1  0  0  0  0
 16 43  1  0  0  0  0
 17 18  1  0  0  0  0
 17 46  1  0  0  0  0
 17 47  1  0  0  0  0
 18 20  2  0  0  0  0
 18 21  1  0  0  0  0
 19 22  2  0  0  0  0
 19 23  1  0  0  0  0
 20 24  1  0  0  0  0
 20 49  1  0  0  0  0
 21 25  2  0  0  0  0
 21 50  1  0  0  0  0
 22 26  1  0  0  0  0
 22 51  1  0  0  0  0
 23 27  2  0  0  0  0
 23 52  1  0  0  0  0
 24 28  2  0  0  0  0
 24 53  1  0  0  0  0
 25 28  1  0  0  0  0
 25 54  1  0  0  0  0
 26 29  2  0  0  0  0
 26 55  1  0  0  0  0
 27 29  1  0  0  0  0
 27 56  1  0  0  0  0
 28 57  1  0  0  0  0
 29 30  1  0  0  0  0
 30 58  1  0  0  0  0
 30 59  1  0  0  0  0
 30 60  1  0  0  0  0
M  END
> <PUBCHEM_COMPOUND_CID>
28962187

> <PUBCHEM_CONFORMER_RMSD>
1

> <PUBCHEM_CONFORMER_DIVERSEORDER>
1
132
84
50
89
115
98
96
8
60
114
26
87
135
133
52
75
12
37
120
111
88
117
68
86
107
25
143
100
71
66
81
140
134
79
9
69
59
27
90
13
126
23
74
82
2
113
125
104
116
21
56
108
67
78
39
34
94
6
57
131
65
95
110
102
45
35
11
83
112
41
15
44
129
36
24
46
121
28
122
76
139
101
17
18
19
109
20
54
42
127
99
106
61
137
77
72
141
22
92
47
53
70
130
80
14
30
38
29
142
3
31
55
10
62
32
85
49
7
105
124
4
136
16
73
123
48
51
58
93
119
63
64
5
40
118
138
103
97
33
43
128
91

> <PUBCHEM_MMFF94_PARTIAL_CHARGES>
42
1 1.45
10 0.28
11 0.28
12 0.28
13 0.36
14 0.28
15 0.27
16 0.27
17 0.14
18 -0.14
19 -0.01
2 -0.56
20 -0.15
21 -0.15
22 -0.15
23 -0.15
24 -0.15
25 -0.15
26 -0.15
27 -0.15
28 -0.15
29 -0.14
3 -0.68
30 0.14
4 -0.68
44 0.4
45 0.42
48 0.4
49 0.15
5 -0.65
50 0.15
51 0.15
52 0.15
53 0.15
54 0.15
55 0.15
56 0.15
57 0.15
6 -0.65
7 -0.81
8 -0.91
9 0.27

> <PUBCHEM_EFFECTIVE_ROTOR_COUNT>
10

> <PUBCHEM_PHARMACOPHORE_FEATURES>
12
1 2 acceptor
1 3 acceptor
1 3 donor
1 4 acceptor
1 4 donor
1 5 acceptor
1 6 acceptor
1 7 cation
1 8 donor
5 2 9 10 11 12 rings
6 18 20 21 24 25 28 rings
6 19 22 23 26 27 29 rings

> <PUBCHEM_HEAVY_ATOM_COUNT>
30

> <PUBCHEM_ATOM_DEF_STEREO_COUNT>
4

> <PUBCHEM_ATOM_UDEF_STEREO_COUNT>
0

> <PUBCHEM_BOND_DEF_STEREO_COUNT>
0

> <PUBCHEM_BOND_UDEF_STEREO_COUNT>
0

> <PUBCHEM_ISOTOPIC_ATOM_COUNT>
0

> <PUBCHEM_COMPONENT_COUNT>
1

> <PUBCHEM_CACTVS_TAUTO_COUNT>
1

> <PUBCHEM_CONFORMER_ID>
01B9ED8B00000001

> <PUBCHEM_MMFF94_ENERGY>
66.4022

> <PUBCHEM_FEATURE_SELFOVERLAP>
60.92

> <PUBCHEM_SHAPE_FINGERPRINT>
11399939 17 17203040889883873511
11421498 54 18058740246469280633
11488393 25 18409456911618693146
11513181 2 18268431416248896599
11524674 6 17979913036226624760
12156800 1 15910267939408882459
12160290 23 17118293539526885873
12788726 201 17469047661476886665
13135754 10 17199676168962850867
14251757 5 17903643973562511759
14363568 33 18341895194772671222
14932701 244 18048893900767390166
17909252 39 18411428310197783640
20028762 73 17615694372587669335
20771845 140 18126558157650187281
21120745 212 17840048255308402484
21344244 181 18055089906482878828
22440779 20 16913695393749392074
23559900 14 18411981326619804175
238918 7 17757286142316535571
255183 313 17761750159525858360
3411729 13 18263640822526540963
38695281 34 18124873718457429456
4017518 198 17982462791449971148
46194498 28 18411701019616164003
5265222 85 17686353365680170701
6287921 2 18271518792995645211
6669772 16 18198063792883142844
6823239 73 18334009459219681603

> <PUBCHEM_SHAPE_MULTIPOLES>
581.93
9.98
7.05
2.34
16.02
5.71
-0.14
-9.24
1.04
-9.98
1.65
-2.19
-1.5
3.76

> <PUBCHEM_SHAPE_SELFOVERLAP>
1204.93

> <PUBCHEM_SHAPE_VOLUME>
333.5

> <PUBCHEM_COORDINATE_TYPE>
2
5
10

$$$$
