28961008
  -OEChem-12032416133D

 51 55  0     1  0  0  0  0  0999 V2000
   -7.1749    4.0990   -0.4281 F   0  0  0  0  0  0  0  0  0  0  0  0
    2.8026   -2.9951   -0.9477 O   0  0  0  0  0  0  0  0  0  0  0  0
   -3.9467   -1.4731   -1.2183 O   0  0  0  0  0  0  0  0  0  0  0  0
    6.5934    2.3587   -0.5076 O   0  0  0  0  0  0  0  0  0  0  0  0
    5.2206    4.0459    0.5299 O   0  0  0  0  0  0  0  0  0  0  0  0
   -0.0009   -3.6920    1.0701 N   0  0  1  0  0  0  0  0  0  0  0  0
   -2.3599   -1.9364    0.3977 N   0  0  0  0  0  0  0  0  0  0  0  0
    1.7261   -1.2745   -0.0002 N   0  0  0  0  0  0  0  0  0  0  0  0
    3.7160   -1.9337   -0.9165 N   0  0  0  0  0  0  0  0  0  0  0  0
   -3.5702    0.0064    0.5649 N   0  0  0  0  0  0  0  0  0  0  0  0
   -1.9221   -3.1967   -0.1538 C   0  0  1  0  0  0  0  0  0  0  0  0
    0.4985   -3.4925   -0.3038 C   0  0  1  0  0  0  0  0  0  0  0  0
   -0.7334   -3.0152   -1.0977 C   0  0  0  0  0  0  0  0  0  0  0  0
   -1.3954   -4.1232    0.9317 C   0  0  0  0  0  0  0  0  0  0  0  0
    1.6574   -2.5224   -0.3898 C   0  0  0  0  0  0  0  0  0  0  0  0
    0.7907   -4.6476    1.8355 C   0  0  0  0  0  0  0  0  0  0  0  0
   -3.3599   -1.1526   -0.1875 C   0  0  0  0  0  0  0  0  0  0  0  0
    3.0076   -0.9558   -0.3440 C   0  0  0  0  0  0  0  0  0  0  0  0
    3.5496    0.3501   -0.1028 C   0  0  0  0  0  0  0  0  0  0  0  0
   -4.4899    1.0507    0.3116 C   0  0  0  0  0  0  0  0  0  0  0  0
    4.8669    0.6332   -0.4719 C   0  0  0  0  0  0  0  0  0  0  0  0
    2.7488    1.3344    0.5026 C   0  0  0  0  0  0  0  0  0  0  0  0
    5.3435    1.9034   -0.2204 C   0  0  0  0  0  0  0  0  0  0  0  0
    4.5596    2.8668    0.3721 C   0  0  0  0  0  0  0  0  0  0  0  0
    3.2559    2.6132    0.7459 C   0  0  0  0  0  0  0  0  0  0  0  0
   -4.5626    2.1417    1.1777 C   0  0  0  0  0  0  0  0  0  0  0  0
   -5.3244    0.9894   -0.8045 C   0  0  0  0  0  0  0  0  0  0  0  0
    6.5082    3.7169   -0.0299 C   0  0  0  0  0  0  0  0  0  0  0  0
   -5.4695    3.1715    0.9276 C   0  0  0  0  0  0  0  0  0  0  0  0
   -6.2315    2.0191   -1.0545 C   0  0  0  0  0  0  0  0  0  0  0  0
   -6.3041    3.1102   -0.1884 C   0  0  0  0  0  0  0  0  0  0  0  0
   -2.7670   -3.6535   -0.6811 H   0  0  0  0  0  0  0  0  0  0  0  0
    0.8143   -4.4550   -0.7317 H   0  0  0  0  0  0  0  0  0  0  0  0
   -0.6464   -1.9836   -1.4581 H   0  0  0  0  0  0  0  0  0  0  0  0
   -0.8619   -3.6607   -1.9758 H   0  0  0  0  0  0  0  0  0  0  0  0
   -1.9463   -4.0285    1.8735 H   0  0  0  0  0  0  0  0  0  0  0  0
   -1.4539   -5.1652    0.5910 H   0  0  0  0  0  0  0  0  0  0  0  0
   -1.8705   -1.5686    1.2081 H   0  0  0  0  0  0  0  0  0  0  0  0
    1.8209   -4.2937    1.9496 H   0  0  0  0  0  0  0  0  0  0  0  0
    0.8173   -5.6377    1.3667 H   0  0  0  0  0  0  0  0  0  0  0  0
    0.3807   -4.7578    2.8454 H   0  0  0  0  0  0  0  0  0  0  0  0
   -2.9971    0.1206    1.3971 H   0  0  0  0  0  0  0  0  0  0  0  0
    5.5172   -0.0980   -0.9409 H   0  0  0  0  0  0  0  0  0  0  0  0
    1.7216    1.1282    0.7949 H   0  0  0  0  0  0  0  0  0  0  0  0
    2.6420    3.3752    1.2126 H   0  0  0  0  0  0  0  0  0  0  0  0
   -3.9181    2.2019    2.0509 H   0  0  0  0  0  0  0  0  0  0  0  0
   -5.3273    0.1792   -1.5197 H   0  0  0  0  0  0  0  0  0  0  0  0
    6.7115    4.3963   -0.8657 H   0  0  0  0  0  0  0  0  0  0  0  0
    7.2742    3.8669    0.7397 H   0  0  0  0  0  0  0  0  0  0  0  0
   -5.5264    4.0212    1.6015 H   0  0  0  0  0  0  0  0  0  0  0  0
   -6.8820    1.9731   -1.9230 H   0  0  0  0  0  0  0  0  0  0  0  0
  1 31  1  0  0  0  0
  2  9  1  0  0  0  0
  2 15  1  0  0  0  0
  3 17  2  0  0  0  0
  4 23  1  0  0  0  0
  4 28  1  0  0  0  0
  5 24  1  0  0  0  0
  5 28  1  0  0  0  0
  6 12  1  0  0  0  0
  6 14  1  0  0  0  0
  6 16  1  0  0  0  0
  7 11  1  0  0  0  0
  7 17  1  0  0  0  0
  7 38  1  0  0  0  0
  8 15  2  0  0  0  0
  8 18  1  0  0  0  0
  9 18  2  0  0  0  0
 10 17  1  0  0  0  0
 10 20  1  0  0  0  0
 10 42  1  0  0  0  0
 11 13  1  0  0  0  0
 11 14  1  0  0  0  0
 11 32  1  0  0  0  0
 12 13  1  0  0  0  0
 12 15  1  0  0  0  0
 12 33  1  0  0  0  0
 13 34  1  0  0  0  0
 13 35  1  0  0  0  0
 14 36  1  0  0  0  0
 14 37  1  0  0  0  0
 16 39  1  0  0  0  0
 16 40  1  0  0  0  0
 16 41  1  0  0  0  0
 18 19  1  0  0  0  0
 19 21  2  0  0  0  0
 19 22  1  0  0  0  0
 20 26  2  0  0  0  0
 20 27  1  0  0  0  0
 21 23  1  0  0  0  0
 21 43  1  0  0  0  0
 22 25  2  0  0  0  0
 22 44  1  0  0  0  0
 23 24  2  0  0  0  0
 24 25  1  0  0  0  0
 25 45  1  0  0  0  0
 26 29  1  0  0  0  0
 26 46  1  0  0  0  0
 27 30  2  0  0  0  0
 27 47  1  0  0  0  0
 28 48  1  0  0  0  0
 28 49  1  0  0  0  0
 29 31  2  0  0  0  0
 29 50  1  0  0  0  0
 30 31  1  0  0  0  0
 30 51  1  0  0  0  0
M  END
> <PUBCHEM_COMPOUND_CID>
28961008

> <PUBCHEM_CONFORMER_RMSD>
1

> <PUBCHEM_CONFORMER_DIVERSEORDER>
1
97
106
86
34
67
59
16
104
98
117
101
102
57
68
94
29
49
77
24
114
119
108
53
72
25
4
48
70
39
110
19
82
60
92
115
93
38
17
7
30
36
51
103
2
12
85
40
73
44
10
109
111
90
5
31
8
61
42
35
105
113
28
96
18
91
66
75
37
15
43
81
11
23
69
83
84
27
99
76
95
87
78
22
116
74
79
13
62
3
9
112
89
55
58
41
45
107
14
20
54
88
80
32
118
64
47
21
46
26
52
6
56
100
65
33
63
50
71

> <PUBCHEM_MMFF94_PARTIAL_CHARGES>
39
1 -0.19
10 -0.55
11 0.3
12 0.45
14 0.27
15 0.3
16 0.27
17 0.69
18 0.46
19 0.05
2 -0.02
20 0.12
21 -0.15
22 -0.15
23 0.08
24 0.08
25 -0.15
26 -0.15
27 -0.15
28 0.56
29 -0.15
3 -0.57
30 -0.15
31 0.19
38 0.37
4 -0.36
42 0.37
43 0.15
44 0.15
45 0.15
46 0.15
47 0.15
5 -0.36
50 0.15
51 0.15
6 -0.81
7 -0.73
8 -0.57
9 -0.41

> <PUBCHEM_EFFECTIVE_ROTOR_COUNT>
7.6

> <PUBCHEM_PHARMACOPHORE_FEATURES>
12
1 10 donor
1 3 acceptor
1 4 acceptor
1 5 acceptor
1 6 cation
1 7 donor
3 8 9 18 cation
5 2 8 9 15 18 rings
5 4 5 23 24 28 rings
5 6 11 12 13 14 rings
6 19 21 22 23 24 25 rings
6 20 26 27 29 30 31 rings

> <PUBCHEM_HEAVY_ATOM_COUNT>
31

> <PUBCHEM_ATOM_DEF_STEREO_COUNT>
2

> <PUBCHEM_ATOM_UDEF_STEREO_COUNT>
0

> <PUBCHEM_BOND_DEF_STEREO_COUNT>
0

> <PUBCHEM_BOND_UDEF_STEREO_COUNT>
0

> <PUBCHEM_ISOTOPIC_ATOM_COUNT>
0

> <PUBCHEM_COMPONENT_COUNT>
1

> <PUBCHEM_CACTVS_TAUTO_COUNT>
3

> <PUBCHEM_CONFORMER_ID>
01B9E8F000000001

> <PUBCHEM_MMFF94_ENERGY>
70.1741

> <PUBCHEM_FEATURE_SELFOVERLAP>
61.104

> <PUBCHEM_SHAPE_FINGERPRINT>
10675989 125 18267587909755593464
10864689 126 18341617031865423540
10937287 8 18410009940377625539
11059845 2 18194091197489989914
11386260 185 17767119805312277823
11408170 253 17690577698498330388
11479125 193 18341343197540120273
11505856 67 18340196510123835559
11828042 163 18270128903498934868
12107183 9 18262221288828554234
12717326 135 18127104555327710136
13878862 14 17754722846295428679
13944108 23 18052259488105162573
13947947 140 11169903975160730281
14223995 32 18271235127944635008
14251764 75 18341337708450361937
14347329 18 18198338653620384192
14705955 166 17680153163876534330
14849402 71 18120089490020681627
15001296 14 18267020562362075353
15142526 21 18335141943390828523
15198563 99 17697306679589898015
15326921 28 17909816962917026450
15400415 2 18411419518374056545
15530120 55 17560501946710363941
16067690 210 17257061184149980424
16112460 7 18409722967673581276
16728433 281 18194982953003220140
16993438 75 18193562396167397888
17980427 26 18336812135618208110
19053607 189 18342444954903061056
21388113 180 18410013204636874113
21859007 373 17841706620103034632
21987440 362 18339650040048704028
22122407 14 17979366257542231697
23569914 152 17771368395978183782
24204213 92 17341825426661094326
2748736 6 18411409609820687941
2838139 119 18341612646186564070
376196 1 18412829092344103990
4058900 60 18409736144496244936
4112364 45 18041551447689036819
4144715 1 18190468354022224130
5047190 92 18411421726640711857
5951187 136 18057048995495171975
6036956 94 17904201778024280541
7288768 16 18187643652092939755
9849439 229 18335143094019570423
9980921 52 14618302221063018556

> <PUBCHEM_SHAPE_MULTIPOLES>
582.31
17.6
7.5
1.13
6.91
2.86
0.18
-31.42
-2.32
-0.12
1.79
0.58
0.66
0.58

> <PUBCHEM_SHAPE_SELFOVERLAP>
1282.186

> <PUBCHEM_SHAPE_VOLUME>
315.9

> <PUBCHEM_COORDINATE_TYPE>
2
5
10

$$$$
