75536572
  -OEChem-12032416393D

 36 36  0     1  0  0  0  0  0999 V2000
   -0.6853    1.3649   -0.2307 O   0  0  0  0  0  0  0  0  0  0  0  0
   -1.8676   -1.9896    0.2745 O   0  0  0  0  0  0  0  0  0  0  0  0
    2.7687   -1.4298    0.4046 O   0  0  0  0  0  0  0  0  0  0  0  0
    5.0673   -0.0484    0.6400 O   0  0  0  0  0  0  0  0  0  0  0  0
   -4.1190    0.1830   -0.0202 N   0  0  0  0  0  0  0  0  0  0  0  0
    1.8211    0.1751   -0.9886 N   0  0  0  0  0  0  0  0  0  0  0  0
   -2.7214    0.2958    0.3638 C   0  0  1  0  0  0  0  0  0  0  0  0
   -1.8174   -0.7096   -0.3252 C   0  0  1  0  0  0  0  0  0  0  0  0
   -0.4560   -0.0515   -0.1453 C   0  0  1  0  0  0  0  0  0  0  0  0
   -2.0933    1.6107   -0.0684 C   0  0  0  0  0  0  0  0  0  0  0  0
    0.5573   -0.4716   -1.1950 C   0  0  0  0  0  0  0  0  0  0  0  0
   -4.6613   -1.1231    0.3658 C   0  0  0  0  0  0  0  0  0  0  0  0
   -4.9136    1.2562    0.5842 C   0  0  0  0  0  0  0  0  0  0  0  0
    2.8329   -0.3619   -0.1984 C   0  0  0  0  0  0  0  0  0  0  0  0
    4.0558    0.5295   -0.1575 C   0  0  0  0  0  0  0  0  0  0  0  0
    6.2319    0.7703    0.6965 C   0  0  0  0  0  0  0  0  0  0  0  0
   -2.6162    0.1884    1.4539 H   0  0  0  0  0  0  0  0  0  0  0  0
   -2.0698   -0.8061   -1.3887 H   0  0  0  0  0  0  0  0  0  0  0  0
   -0.0545   -0.2576    0.8556 H   0  0  0  0  0  0  0  0  0  0  0  0
   -2.4682    1.9566   -1.0387 H   0  0  0  0  0  0  0  0  0  0  0  0
   -2.2329    2.4113    0.6645 H   0  0  0  0  0  0  0  0  0  0  0  0
    0.2211   -0.1769   -2.1952 H   0  0  0  0  0  0  0  0  0  0  0  0
    0.6999   -1.5574   -1.1814 H   0  0  0  0  0  0  0  0  0  0  0  0
   -1.6503   -1.8938    1.2172 H   0  0  0  0  0  0  0  0  0  0  0  0
   -4.2450   -1.9274   -0.2476 H   0  0  0  0  0  0  0  0  0  0  0  0
   -4.4961   -1.3494    1.4254 H   0  0  0  0  0  0  0  0  0  0  0  0
   -5.7421   -1.1574    0.1820 H   0  0  0  0  0  0  0  0  0  0  0  0
   -5.9695    1.1522    0.3080 H   0  0  0  0  0  0  0  0  0  0  0  0
   -4.8473    1.2530    1.6783 H   0  0  0  0  0  0  0  0  0  0  0  0
   -4.6089    2.2419    0.2177 H   0  0  0  0  0  0  0  0  0  0  0  0
    1.9721    1.0741   -1.4372 H   0  0  0  0  0  0  0  0  0  0  0  0
    4.4201    0.6656   -1.1824 H   0  0  0  0  0  0  0  0  0  0  0  0
    3.7620    1.5008    0.2572 H   0  0  0  0  0  0  0  0  0  0  0  0
    6.9730    0.2701    1.3256 H   0  0  0  0  0  0  0  0  0  0  0  0
    5.9943    1.7423    1.1394 H   0  0  0  0  0  0  0  0  0  0  0  0
    6.6539    0.9036   -0.3043 H   0  0  0  0  0  0  0  0  0  0  0  0
  1  9  1  0  0  0  0
  1 10  1  0  0  0  0
  2  8  1  0  0  0  0
  2 24  1  0  0  0  0
  3 14  2  0  0  0  0
  4 15  1  0  0  0  0
  4 16  1  0  0  0  0
  5  7  1  0  0  0  0
  5 12  1  0  0  0  0
  5 13  1  0  0  0  0
  6 11  1  0  0  0  0
  6 14  1  0  0  0  0
  6 31  1  0  0  0  0
  7  8  1  0  0  0  0
  7 10  1  0  0  0  0
  7 17  1  0  0  0  0
  8  9  1  0  0  0  0
  8 18  1  0  0  0  0
  9 11  1  0  0  0  0
  9 19  1  0  0  0  0
 10 20  1  0  0  0  0
 10 21  1  0  0  0  0
 11 22  1  0  0  0  0
 11 23  1  0  0  0  0
 12 25  1  0  0  0  0
 12 26  1  0  0  0  0
 12 27  1  0  0  0  0
 13 28  1  0  0  0  0
 13 29  1  0  0  0  0
 13 30  1  0  0  0  0
 14 15  1  0  0  0  0
 15 32  1  0  0  0  0
 15 33  1  0  0  0  0
 16 34  1  0  0  0  0
 16 35  1  0  0  0  0
 16 36  1  0  0  0  0
M  END
> <PUBCHEM_COMPOUND_CID>
75536572

> <PUBCHEM_CONFORMER_RMSD>
0.8

> <PUBCHEM_CONFORMER_DIVERSEORDER>
1
45
60
30
20
36
58
29
31
2
65
13
50
74
39
10
84
44
72
6
11
24
19
73
7
54
66
9
42
71
43
32
40
47
63
55
23
79
62
21
27
12
5
69
28
46
18
85
64
61
25
8
17
4
76
52
49
37
41
34
80
38
82
83
14
3
77
81
35
22
26
59
53
57
75
78
51
48
56
70
15
67
68
33
16

> <PUBCHEM_MMFF94_PARTIAL_CHARGES>
18
1 -0.56
10 0.28
11 0.3
12 0.27
13 0.27
14 0.57
15 0.34
16 0.28
2 -0.68
24 0.4
3 -0.57
31 0.37
4 -0.56
5 -0.81
6 -0.73
7 0.27
8 0.28
9 0.28

> <PUBCHEM_EFFECTIVE_ROTOR_COUNT>
7

> <PUBCHEM_PHARMACOPHORE_FEATURES>
8
1 1 acceptor
1 2 acceptor
1 2 donor
1 3 acceptor
1 4 acceptor
1 5 cation
1 6 donor
5 1 7 8 9 10 rings

> <PUBCHEM_HEAVY_ATOM_COUNT>
16

> <PUBCHEM_ATOM_DEF_STEREO_COUNT>
3

> <PUBCHEM_ATOM_UDEF_STEREO_COUNT>
0

> <PUBCHEM_BOND_DEF_STEREO_COUNT>
0

> <PUBCHEM_BOND_UDEF_STEREO_COUNT>
0

> <PUBCHEM_ISOTOPIC_ATOM_COUNT>
0

> <PUBCHEM_COMPONENT_COUNT>
1

> <PUBCHEM_CACTVS_TAUTO_COUNT>
2

> <PUBCHEM_CONFORMER_ID>
048098BC00000001

> <PUBCHEM_MMFF94_ENERGY>
35.1576

> <PUBCHEM_FEATURE_SELFOVERLAP>
40.604

> <PUBCHEM_SHAPE_FINGERPRINT>
11132069 177 18341061731131744037
11401426 45 18410294692751466997
117890 112 18202285762508771921
12236239 1 17749108898362793028
12251169 10 18335140895054181308
12507560 40 18339922602667549094
13214271 11 18202002127569394637
13288520 33 11169908381580293834
13897977 58 18342458149047491680
14341114 176 18410857655663571704
15048467 5 16630531704907491305
17834072 8 8358263626815590971
19050596 39 18261394485695056268
200 152 14417851440605890844
20325693 3 9799693697117098057
204376 136 16773797000048183702
20510252 161 18199753552838642985
20645477 56 17632292385034165940
20645477 70 13262684725182064512
20871999 31 9079125453003052878
21119208 17 10735875075783831318
22854114 59 17775568632631554612
22926399 37 15626504986253700498
23402539 116 18411132541886124509
23402655 69 11959739252416156026
23559900 14 18198084511314762438
26918003 58 17458346355174120792
300161 21 18409727331571168509
3545911 37 18341896277721439134
42 15 18040437680764091844
449060 50 18411416198774780108
4990 188 11025797595824908377
5104073 3 18339086973387678915
542803 24 14261353552751958450

> <PUBCHEM_SHAPE_MULTIPOLES>
295.83
12.18
1.48
0.85
11.33
0.1
0.11
-2.41
-3.99
-1.16
-0.15
0.31
0.03
0.13

> <PUBCHEM_SHAPE_SELFOVERLAP>
579.775

> <PUBCHEM_SHAPE_VOLUME>
180.3

> <PUBCHEM_COORDINATE_TYPE>
2
5
10

$$$$
