44716352
  -OEChem-12032416333D

 55 58  0     1  0  0  0  0  0999 V2000
    4.8491    0.9885   -0.9582 N   0  0  2  0  0  0  0  0  0  0  0  0
    1.1368    0.2970   -0.8090 N   0  0  0  0  0  0  0  0  0  0  0  0
    4.8860    0.4926    1.5951 C   0  0  2  0  0  0  0  0  0  0  0  0
    5.6805   -0.5785    0.8136 C   0  0  2  0  0  0  0  0  0  0  0  0
    3.4621    0.9858   -0.4197 C   0  0  2  0  0  0  0  0  0  0  0  0
    3.4427    0.5472    1.0615 C   0  0  0  0  0  0  0  0  0  0  0  0
    5.5040   -0.3165   -0.6991 C   0  0  0  0  0  0  0  0  0  0  0  0
    5.5398    1.8520    1.2818 C   0  0  0  0  0  0  0  0  0  0  0  0
    5.6141    2.0394   -0.2439 C   0  0  0  0  0  0  0  0  0  0  0  0
    5.2930   -2.0074    1.1866 C   0  0  0  0  0  0  0  0  0  0  0  0
    2.5063    0.1487   -1.2730 C   0  0  0  0  0  0  0  0  0  0  0  0
    6.1187   -3.0227    0.4202 C   0  0  0  0  0  0  0  0  0  0  0  0
    0.2221   -0.5059   -1.6113 C   0  0  0  0  0  0  0  0  0  0  0  0
   -1.2009   -0.3771   -1.1367 C   0  0  0  0  0  0  0  0  0  0  0  0
   -1.6153   -1.0466    0.0148 C   0  0  0  0  0  0  0  0  0  0  0  0
   -2.1046    0.4118   -1.8483 C   0  0  0  0  0  0  0  0  0  0  0  0
   -2.9336   -0.9270    0.4545 C   0  0  0  0  0  0  0  0  0  0  0  0
   -3.4230    0.5312   -1.4085 C   0  0  0  0  0  0  0  0  0  0  0  0
   -3.8373   -0.1380   -0.2570 C   0  0  0  0  0  0  0  0  0  0  0  0
   -5.2052   -0.0143    0.1992 C   0  0  0  0  0  0  0  0  0  0  0  0
   -6.1736   -0.9127   -0.2488 C   0  0  0  0  0  0  0  0  0  0  0  0
   -5.5551    1.0026    1.0874 C   0  0  0  0  0  0  0  0  0  0  0  0
   -7.4920   -0.7941    0.1914 C   0  0  0  0  0  0  0  0  0  0  0  0
   -6.8732    1.1211    1.5278 C   0  0  0  0  0  0  0  0  0  0  0  0
   -7.8416    0.2227    1.0797 C   0  0  0  0  0  0  0  0  0  0  0  0
    4.8987    0.2969    2.6724 H   0  0  0  0  0  0  0  0  0  0  0  0
    6.7441   -0.4495    1.0620 H   0  0  0  0  0  0  0  0  0  0  0  0
    3.0951    2.0220   -0.4729 H   0  0  0  0  0  0  0  0  0  0  0  0
    2.8658    1.2749    1.6466 H   0  0  0  0  0  0  0  0  0  0  0  0
    2.9531   -0.4223    1.1999 H   0  0  0  0  0  0  0  0  0  0  0  0
    6.4888   -0.3238   -1.1848 H   0  0  0  0  0  0  0  0  0  0  0  0
    4.9379   -1.1082   -1.1990 H   0  0  0  0  0  0  0  0  0  0  0  0
    6.5471    1.8994    1.7121 H   0  0  0  0  0  0  0  0  0  0  0  0
    4.9548    2.6622    1.7337 H   0  0  0  0  0  0  0  0  0  0  0  0
    5.2326    3.0310   -0.5171 H   0  0  0  0  0  0  0  0  0  0  0  0
    6.6601    2.0270   -0.5760 H   0  0  0  0  0  0  0  0  0  0  0  0
    5.4487   -2.1572    2.2616 H   0  0  0  0  0  0  0  0  0  0  0  0
    4.2335   -2.2007    0.9885 H   0  0  0  0  0  0  0  0  0  0  0  0
    2.7853   -0.9104   -1.2336 H   0  0  0  0  0  0  0  0  0  0  0  0
    2.5820    0.4711   -2.3195 H   0  0  0  0  0  0  0  0  0  0  0  0
    5.9006   -3.0196   -0.6512 H   0  0  0  0  0  0  0  0  0  0  0  0
    5.9019   -4.0307    0.7895 H   0  0  0  0  0  0  0  0  0  0  0  0
    7.1906   -2.8441    0.5547 H   0  0  0  0  0  0  0  0  0  0  0  0
    0.8652    1.2789   -0.8596 H   0  0  0  0  0  0  0  0  0  0  0  0
    0.5030   -1.5664   -1.5673 H   0  0  0  0  0  0  0  0  0  0  0  0
    0.2844   -0.2136   -2.6676 H   0  0  0  0  0  0  0  0  0  0  0  0
   -0.9202   -1.6644    0.5773 H   0  0  0  0  0  0  0  0  0  0  0  0
   -1.7950    0.9406   -2.7458 H   0  0  0  0  0  0  0  0  0  0  0  0
   -3.2402   -1.4557    1.3541 H   0  0  0  0  0  0  0  0  0  0  0  0
   -4.1146    1.1506   -1.9747 H   0  0  0  0  0  0  0  0  0  0  0  0
   -5.9179   -1.7114   -0.9412 H   0  0  0  0  0  0  0  0  0  0  0  0
   -4.8126    1.7114    1.4466 H   0  0  0  0  0  0  0  0  0  0  0  0
   -8.2461   -1.4936   -0.1573 H   0  0  0  0  0  0  0  0  0  0  0  0
   -7.1457    1.9128    2.2195 H   0  0  0  0  0  0  0  0  0  0  0  0
   -8.8680    0.3151    1.4226 H   0  0  0  0  0  0  0  0  0  0  0  0
  1  5  1  0  0  0  0
  1  7  1  0  0  0  0
  1  9  1  0  0  0  0
  2 11  1  0  0  0  0
  2 13  1  0  0  0  0
  2 44  1  0  0  0  0
  3  4  1  0  0  0  0
  3  6  1  0  0  0  0
  3  8  1  0  0  0  0
  3 26  1  0  0  0  0
  4  7  1  0  0  0  0
  4 10  1  0  0  0  0
  4 27  1  0  0  0  0
  5  6  1  0  0  0  0
  5 11  1  0  0  0  0
  5 28  1  0  0  0  0
  6 29  1  0  0  0  0
  6 30  1  0  0  0  0
  7 31  1  0  0  0  0
  7 32  1  0  0  0  0
  8  9  1  0  0  0  0
  8 33  1  0  0  0  0
  8 34  1  0  0  0  0
  9 35  1  0  0  0  0
  9 36  1  0  0  0  0
 10 12  1  0  0  0  0
 10 37  1  0  0  0  0
 10 38  1  0  0  0  0
 11 39  1  0  0  0  0
 11 40  1  0  0  0  0
 12 41  1  0  0  0  0
 12 42  1  0  0  0  0
 12 43  1  0  0  0  0
 13 14  1  0  0  0  0
 13 45  1  0  0  0  0
 13 46  1  0  0  0  0
 14 15  2  0  0  0  0
 14 16  1  0  0  0  0
 15 17  1  0  0  0  0
 15 47  1  0  0  0  0
 16 18  2  0  0  0  0
 16 48  1  0  0  0  0
 17 19  2  0  0  0  0
 17 49  1  0  0  0  0
 18 19  1  0  0  0  0
 18 50  1  0  0  0  0
 19 20  1  0  0  0  0
 20 21  2  0  0  0  0
 20 22  1  0  0  0  0
 21 23  1  0  0  0  0
 21 51  1  0  0  0  0
 22 24  2  0  0  0  0
 22 52  1  0  0  0  0
 23 25  2  0  0  0  0
 23 53  1  0  0  0  0
 24 25  1  0  0  0  0
 24 54  1  0  0  0  0
 25 55  1  0  0  0  0
M  END
> <PUBCHEM_COMPOUND_CID>
44716352

> <PUBCHEM_CONFORMER_RMSD>
0.8

> <PUBCHEM_CONFORMER_DIVERSEORDER>
1
14
48
31
16
42
24
8
35
63
61
55
25
44
38
3
41
34
56
12
60
9
22
52
4
20
15
7
39
40
50
30
26
36
2
49
59
19
64
37
13
21
18
51
33
46
54
6
23
53
58
43
45
57
28
32
47
10
17
62
5
11
29
27

> <PUBCHEM_MMFF94_PARTIAL_CHARGES>
27
1 -0.81
11 0.27
13 0.41
14 -0.14
15 -0.15
16 -0.15
17 -0.15
18 -0.15
2 -0.9
21 -0.15
22 -0.15
23 -0.15
24 -0.15
25 -0.15
44 0.36
47 0.15
48 0.15
49 0.15
5 0.27
50 0.15
51 0.15
52 0.15
53 0.15
54 0.15
55 0.15
7 0.27
9 0.27

> <PUBCHEM_EFFECTIVE_ROTOR_COUNT>
7.2

> <PUBCHEM_PHARMACOPHORE_FEATURES>
7
1 1 cation
1 12 hydrophobe
1 2 cation
1 2 donor
6 14 15 16 17 18 19 rings
6 20 21 22 23 24 25 rings
8 1 3 4 5 6 7 8 9 rings

> <PUBCHEM_HEAVY_ATOM_COUNT>
25

> <PUBCHEM_ATOM_DEF_STEREO_COUNT>
3

> <PUBCHEM_ATOM_UDEF_STEREO_COUNT>
0

> <PUBCHEM_BOND_DEF_STEREO_COUNT>
0

> <PUBCHEM_BOND_UDEF_STEREO_COUNT>
0

> <PUBCHEM_ISOTOPIC_ATOM_COUNT>
0

> <PUBCHEM_COMPONENT_COUNT>
1

> <PUBCHEM_CACTVS_TAUTO_COUNT>
1

> <PUBCHEM_CONFORMER_ID>
02AA514000000001

> <PUBCHEM_MMFF94_ENERGY>
69.0994

> <PUBCHEM_FEATURE_SELFOVERLAP>
35.522

> <PUBCHEM_SHAPE_FINGERPRINT>
10 15 17846219990384733861
10666366 153 17023179388882260655
10692045 39 18271246014942898982
10835480 77 11527654302472466150
11524674 6 16370729262264128915
11638347 137 18334019385147584955
11761917 142 15768662940811331795
11991303 11 13973959931131239645
125118 31 17203618064399128505
12516196 113 14995999964869879021
12596602 18 18410292523370950825
12616971 3 17632000997352012166
12778500 126 18273213072063557370
13533116 47 18335700525314543258
13673619 4 17022618659131116620
13685833 64 14779545703637449661
13782708 43 17385437709287989279
14251764 18 18412546548267975173
14341114 176 17967250901475503116
14347424 109 18413386532301955168
14675020 138 14764341597141359190
14933364 13 17203334424869514165
15183329 4 14764353747202444713
15301273 46 17458625584537037487
15392192 104 18114477758976765579
15419008 145 17774161176428661456
15419008 91 13840813535277555119
1577012 14 16988554740862082260
16994733 274 16128109849779785563
1813 80 14707204401445812534
18222031 100 13623529048002229718
20157964 124 15051740780734924540
20281389 69 17988925574236192153
20511986 3 14189283833810682756
20554085 129 15841546349444127671
21033648 29 16702009929015416458
21130935 74 18408886252294648411
21150785 3 10375863066297182789
21267235 1 16298386850968250806
21623969 137 15864066581132064393
21792934 111 17967815999619382861
220451 1 18410009966194506214
2303208 19 17458339706786364326
23081809 10 18060411443449007031
23559900 14 13190629399145332301
23576562 1 14189276172807708985
239999 70 17312816083871904844
2747138 104 16732710441421065649
2838139 119 16845568687114997513
29717793 49 9439412341198329708
312425 54 18408321115959955499
3383291 50 16298109804746563761
34797466 226 17022907865412755502
3663271 9 18341893025951492499
394071 54 17531810272430462900
4325135 7 7925911478798829874
44249763 50 13973667430519058085
465052 167 15430035461347523338
5104073 3 18130774711918343350
54039377 194 16081636783276275434
57724786 102 18058723732251578264
59682541 35 15647330901206483524
6898599 12 13470106566795961709

> <PUBCHEM_SHAPE_MULTIPOLES>
504.53
23.76
1.84
1.65
17.73
0.64
-0.19
-0.25
10.19
-4.03
0.61
-0.17
-0.21
-1.3

> <PUBCHEM_SHAPE_SELFOVERLAP>
1077.935

> <PUBCHEM_SHAPE_VOLUME>
274.2

> <PUBCHEM_COORDINATE_TYPE>
2
5
10

$$$$
