11912458
  -OEChem-12032416113D

 54 55  0     1  0  0  0  0  0999 V2000
    2.4184    1.8036    1.1035 S   0  0  0  0  0  0  0  0  0  0  0  0
    2.4712    1.8551    2.5485 O   0  0  0  0  0  0  0  0  0  0  0  0
    3.0043    2.8522    0.2969 O   0  0  0  0  0  0  0  0  0  0  0  0
   -3.3490   -1.6393   -0.3018 O   0  0  0  0  0  0  0  0  0  0  0  0
    4.7711   -3.3459   -0.6127 O   0  0  0  0  0  0  0  0  0  0  0  0
    0.7933    1.5681    0.6124 N   0  0  1  0  0  0  0  0  0  0  0  0
   -5.3102   -0.4658   -0.7236 N   0  0  0  0  0  0  0  0  0  0  0  0
   -0.9447    1.7929   -1.1498 C   0  0  2  0  0  0  0  0  0  0  0  0
   -1.7350    0.6387   -0.4867 C   0  0  1  0  0  0  0  0  0  0  0  0
   -1.4039    0.5187    1.0086 C   0  0  0  0  0  0  0  0  0  0  0  0
    0.5565    1.6323   -0.8608 C   0  0  0  0  0  0  0  0  0  0  0  0
    0.0996    0.4075    1.2403 C   0  0  0  0  0  0  0  0  0  0  0  0
   -1.4241    3.1930   -0.7452 C   0  0  0  0  0  0  0  0  0  0  0  0
   -3.2452    0.7450   -0.6978 C   0  0  0  0  0  0  0  0  0  0  0  0
   -0.6810    4.2670   -1.5109 C   0  0  0  0  0  0  0  0  0  0  0  0
   -3.9400   -0.5911   -0.5468 C   0  0  0  0  0  0  0  0  0  0  0  0
    3.1195    0.2667    0.5914 C   0  0  0  0  0  0  0  0  0  0  0  0
    3.6535    0.1370   -0.6906 C   0  0  0  0  0  0  0  0  0  0  0  0
    3.1407   -0.8173    1.4689 C   0  0  0  0  0  0  0  0  0  0  0  0
   -6.2229   -1.5829   -0.6378 C   0  0  0  0  0  0  0  0  0  0  0  0
    4.2089   -1.0769   -1.0952 C   0  0  0  0  0  0  0  0  0  0  0  0
    3.6960   -2.0311    1.0643 C   0  0  0  0  0  0  0  0  0  0  0  0
    4.2302   -2.1610   -0.2177 C   0  0  0  0  0  0  0  0  0  0  0  0
   -6.6879   -1.7255    0.7732 C   0  0  0  0  0  0  0  0  0  0  0  0
   -6.5176   -2.8316    1.5062 C   0  0  0  0  0  0  0  0  0  0  0  0
    5.2983   -3.4096   -1.9369 C   0  0  0  0  0  0  0  0  0  0  0  0
   -1.0816    1.6984   -2.2364 H   0  0  0  0  0  0  0  0  0  0  0  0
   -1.3826   -0.2838   -0.9712 H   0  0  0  0  0  0  0  0  0  0  0  0
   -1.7896    1.3920    1.5494 H   0  0  0  0  0  0  0  0  0  0  0  0
   -1.8924   -0.3589    1.4465 H   0  0  0  0  0  0  0  0  0  0  0  0
    0.8967    0.6945   -1.3174 H   0  0  0  0  0  0  0  0  0  0  0  0
    1.1398    2.4304   -1.3238 H   0  0  0  0  0  0  0  0  0  0  0  0
    0.2845    0.3936    2.3192 H   0  0  0  0  0  0  0  0  0  0  0  0
    0.4547   -0.5338    0.8086 H   0  0  0  0  0  0  0  0  0  0  0  0
   -2.4908    3.2987   -0.9719 H   0  0  0  0  0  0  0  0  0  0  0  0
   -1.3109    3.3671    0.3302 H   0  0  0  0  0  0  0  0  0  0  0  0
   -3.6950    1.4580    0.0033 H   0  0  0  0  0  0  0  0  0  0  0  0
   -3.4541    1.0969   -1.7161 H   0  0  0  0  0  0  0  0  0  0  0  0
   -0.6521    4.0563   -2.5846 H   0  0  0  0  0  0  0  0  0  0  0  0
   -1.1861    5.2301   -1.3774 H   0  0  0  0  0  0  0  0  0  0  0  0
    0.3421    4.4007   -1.1479 H   0  0  0  0  0  0  0  0  0  0  0  0
   -5.7041    0.4523   -0.9091 H   0  0  0  0  0  0  0  0  0  0  0  0
    3.6444    0.9675   -1.3909 H   0  0  0  0  0  0  0  0  0  0  0  0
    2.7298   -0.7402    2.4716 H   0  0  0  0  0  0  0  0  0  0  0  0
   -5.7245   -2.4874   -1.0023 H   0  0  0  0  0  0  0  0  0  0  0  0
   -7.0734   -1.3672   -1.2918 H   0  0  0  0  0  0  0  0  0  0  0  0
    4.6050   -1.1089   -2.1044 H   0  0  0  0  0  0  0  0  0  0  0  0
    3.7091   -2.8724    1.7519 H   0  0  0  0  0  0  0  0  0  0  0  0
   -7.2086   -0.8822    1.2204 H   0  0  0  0  0  0  0  0  0  0  0  0
   -6.8853   -2.8771    2.5254 H   0  0  0  0  0  0  0  0  0  0  0  0
   -6.0118   -3.7041    1.1076 H   0  0  0  0  0  0  0  0  0  0  0  0
    4.5168   -3.2567   -2.6890 H   0  0  0  0  0  0  0  0  0  0  0  0
    6.1409   -2.7222   -2.0681 H   0  0  0  0  0  0  0  0  0  0  0  0
    5.6872   -4.4229   -2.0816 H   0  0  0  0  0  0  0  0  0  0  0  0
  1  2  2  0  0  0  0
  1  3  2  0  0  0  0
  1  6  1  0  0  0  0
  1 17  1  0  0  0  0
  4 16  2  0  0  0  0
  5 23  1  0  0  0  0
  5 26  1  0  0  0  0
  6 11  1  0  0  0  0
  6 12  1  0  0  0  0
  7 16  1  0  0  0  0
  7 20  1  0  0  0  0
  7 42  1  0  0  0  0
  8  9  1  0  0  0  0
  8 11  1  0  0  0  0
  8 13  1  0  0  0  0
  8 27  1  0  0  0  0
  9 10  1  0  0  0  0
  9 14  1  0  0  0  0
  9 28  1  0  0  0  0
 10 12  1  0  0  0  0
 10 29  1  0  0  0  0
 10 30  1  0  0  0  0
 11 31  1  0  0  0  0
 11 32  1  0  0  0  0
 12 33  1  0  0  0  0
 12 34  1  0  0  0  0
 13 15  1  0  0  0  0
 13 35  1  0  0  0  0
 13 36  1  0  0  0  0
 14 16  1  0  0  0  0
 14 37  1  0  0  0  0
 14 38  1  0  0  0  0
 15 39  1  0  0  0  0
 15 40  1  0  0  0  0
 15 41  1  0  0  0  0
 17 18  2  0  0  0  0
 17 19  1  0  0  0  0
 18 21  1  0  0  0  0
 18 43  1  0  0  0  0
 19 22  2  0  0  0  0
 19 44  1  0  0  0  0
 20 24  1  0  0  0  0
 20 45  1  0  0  0  0
 20 46  1  0  0  0  0
 21 23  2  0  0  0  0
 21 47  1  0  0  0  0
 22 23  1  0  0  0  0
 22 48  1  0  0  0  0
 24 25  2  0  0  0  0
 24 49  1  0  0  0  0
 25 50  1  0  0  0  0
 25 51  1  0  0  0  0
 26 52  1  0  0  0  0
 26 53  1  0  0  0  0
 26 54  1  0  0  0  0
M  END
> <PUBCHEM_COMPOUND_CID>
11912458

> <PUBCHEM_CONFORMER_RMSD>
1

> <PUBCHEM_CONFORMER_DIVERSEORDER>
1
33
18
9
53
43
57
6
31
54
22
58
61
37
48
59
11
40
30
26
42
46
41
16
52
45
50
19
13
24
38
35
14
25
21
60
55
28
27
17
12
10
29
15
7
51
47
32
39
20
56
44
34
8
23
49
3
5
2
4
36

> <PUBCHEM_MMFF94_PARTIAL_CHARGES>
29
1 1.45
11 0.36
12 0.36
14 0.06
16 0.57
17 -0.01
18 -0.15
19 -0.15
2 -0.65
20 0.44
21 -0.15
22 -0.15
23 0.08
24 -0.29
25 -0.3
26 0.28
3 -0.65
4 -0.57
42 0.37
43 0.15
44 0.15
47 0.15
48 0.15
49 0.15
5 -0.36
50 0.15
51 0.15
6 -0.85
7 -0.73

> <PUBCHEM_EFFECTIVE_ROTOR_COUNT>
10.2

> <PUBCHEM_PHARMACOPHORE_FEATURES>
9
1 15 hydrophobe
1 2 acceptor
1 25 hydrophobe
1 3 acceptor
1 4 acceptor
1 5 acceptor
1 7 donor
6 17 18 19 21 22 23 rings
6 6 8 9 10 11 12 rings

> <PUBCHEM_HEAVY_ATOM_COUNT>
26

> <PUBCHEM_ATOM_DEF_STEREO_COUNT>
2

> <PUBCHEM_ATOM_UDEF_STEREO_COUNT>
0

> <PUBCHEM_BOND_DEF_STEREO_COUNT>
0

> <PUBCHEM_BOND_UDEF_STEREO_COUNT>
0

> <PUBCHEM_ISOTOPIC_ATOM_COUNT>
0

> <PUBCHEM_COMPONENT_COUNT>
1

> <PUBCHEM_CACTVS_TAUTO_COUNT>
2

> <PUBCHEM_CONFORMER_ID>
00B5C50A00000001

> <PUBCHEM_MMFF94_ENERGY>
49.4248

> <PUBCHEM_FEATURE_SELFOVERLAP>
45.689

> <PUBCHEM_SHAPE_FINGERPRINT>
10498660 4 13190922869670469966
117089 54 18056490443489022422
11796584 16 17907288854972566454
11991303 11 17534056364533597725
12422481 6 14764359214980753217
12623949 98 18272656765622852294
13383661 66 18199202697598302662
13533116 47 18130789009843113099
13673619 4 18272374144158781598
13690498 29 18337956667023641110
13785724 45 18408893936391554397
13955234 65 18057881540266499992
14251740 57 18410293648700114467
14251764 30 18409738330930140227
14347424 109 17847061095284093113
15664445 248 18116994584032160916
17859628 70 18272928358412401848
17909252 39 18334007281122526267
1813 80 18260823834923743829
20715895 44 9727638293059219959
20775438 99 18193261112681315386
20775530 9 18200585883346981238
21344244 246 18410022031638375004
21682296 61 18411421722493749383
22950370 63 18261112967863715453
2303208 19 18187364368182364475
23559900 14 18338503145698808804
239999 70 18041551572127407216
2838139 119 10737273654822879863
4394409 98 15811995527286430958
44062 13 18123464977932473404
44317340 157 8286213768646804665
46194498 28 18334292085184142268
465052 167 18343586247851165151
484985 159 17481996635977158538
621550 34 18198040660005163928
70251023 43 18409737248603448624
7399639 24 18125415713809544808
7918774 8 18187370956503843571

> <PUBCHEM_SHAPE_MULTIPOLES>
505.48
14.23
4.51
1.74
18.64
1.35
-0.41
-19.29
0.79
-1.68
1.51
-1.24
-0.03
3.6

> <PUBCHEM_SHAPE_SELFOVERLAP>
1018.814

> <PUBCHEM_SHAPE_VOLUME>
296.6

> <PUBCHEM_COORDINATE_TYPE>
2
5
10

$$$$
