9424526
  -OEChem-12032416153D

 51 55  0     1  0  0  0  0  0999 V2000
    2.5654   -0.7203    1.3745 S   0  0  0  0  0  0  0  0  0  0  0  0
   -4.1744    1.1631   -1.5878 F   0  0  0  0  0  0  0  0  0  0  0  0
    3.2329   -1.9821    1.6163 O   0  0  0  0  0  0  0  0  0  0  0  0
    1.9941    0.0407    2.4656 O   0  0  0  0  0  0  0  0  0  0  0  0
   -2.3459   -4.1734    0.6298 O   0  0  0  0  0  0  0  0  0  0  0  0
    1.3756   -0.9388    0.1647 N   0  0  2  0  0  0  0  0  0  0  0  0
   -1.4896   -2.1783   -0.2494 N   0  0  0  0  0  0  0  0  0  0  0  0
    0.5286   -2.1644   -1.8311 C   0  0  1  0  0  0  0  0  0  0  0  0
   -0.5251   -0.0475   -1.1715 C   0  0  2  0  0  0  0  0  0  0  0  0
   -0.0883   -0.8848   -2.3711 C   0  0  0  0  0  0  0  0  0  0  0  0
    1.7483   -1.8542   -0.9498 C   0  0  0  0  0  0  0  0  0  0  0  0
    0.7083    0.3055   -0.3173 C   0  0  0  0  0  0  0  0  0  0  0  0
   -0.5487   -2.9457   -1.0771 C   0  0  0  0  0  0  0  0  0  0  0  0
   -1.5779   -0.7742   -0.3299 C   0  0  0  0  0  0  0  0  0  0  0  0
   -2.5599   -0.1188    0.3425 C   0  0  0  0  0  0  0  0  0  0  0  0
   -2.3691   -2.9458    0.5350 C   0  0  0  0  0  0  0  0  0  0  0  0
   -3.4828   -0.8771    1.1655 C   0  0  0  0  0  0  0  0  0  0  0  0
   -3.4072   -2.2024    1.2842 C   0  0  0  0  0  0  0  0  0  0  0  0
    3.6937    0.3297    0.5131 C   0  0  0  0  0  0  0  0  0  0  0  0
   -2.7053    1.3517    0.2722 C   0  0  0  0  0  0  0  0  0  0  0  0
    3.5346    1.7035    0.5896 C   0  0  0  0  0  0  0  0  0  0  0  0
    4.7189   -0.2380   -0.2256 C   0  0  0  0  0  0  0  0  0  0  0  0
   -3.5165    1.9255   -0.7022 C   0  0  0  0  0  0  0  0  0  0  0  0
   -2.0265    2.1526    1.1859 C   0  0  0  0  0  0  0  0  0  0  0  0
    4.4256    2.5330   -0.0914 C   0  0  0  0  0  0  0  0  0  0  0  0
    5.6098    0.5914   -0.9066 C   0  0  0  0  0  0  0  0  0  0  0  0
   -3.6501    3.3126   -0.7636 C   0  0  0  0  0  0  0  0  0  0  0  0
   -2.1602    3.5398    1.1247 C   0  0  0  0  0  0  0  0  0  0  0  0
    5.4633    1.9769   -0.8396 C   0  0  0  0  0  0  0  0  0  0  0  0
   -2.9719    4.1196    0.1499 C   0  0  0  0  0  0  0  0  0  0  0  0
    0.8778   -2.7823   -2.6679 H   0  0  0  0  0  0  0  0  0  0  0  0
   -0.9356    0.8848   -1.5756 H   0  0  0  0  0  0  0  0  0  0  0  0
   -0.9432   -1.1092   -3.0213 H   0  0  0  0  0  0  0  0  0  0  0  0
    0.6407   -0.3349   -2.9788 H   0  0  0  0  0  0  0  0  0  0  0  0
    2.1443   -2.7930   -0.5486 H   0  0  0  0  0  0  0  0  0  0  0  0
    2.5237   -1.3914   -1.5694 H   0  0  0  0  0  0  0  0  0  0  0  0
    1.3985    0.8872   -0.9376 H   0  0  0  0  0  0  0  0  0  0  0  0
    0.4153    0.9204    0.5371 H   0  0  0  0  0  0  0  0  0  0  0  0
   -1.1706   -3.4766   -1.8114 H   0  0  0  0  0  0  0  0  0  0  0  0
   -0.0907   -3.7255   -0.4552 H   0  0  0  0  0  0  0  0  0  0  0  0
   -4.2515   -0.3352    1.7088 H   0  0  0  0  0  0  0  0  0  0  0  0
   -4.0979   -2.7602    1.9053 H   0  0  0  0  0  0  0  0  0  0  0  0
    2.7330    2.1572    1.1644 H   0  0  0  0  0  0  0  0  0  0  0  0
    4.8488   -1.3136   -0.2936 H   0  0  0  0  0  0  0  0  0  0  0  0
   -1.3968    1.7161    1.9571 H   0  0  0  0  0  0  0  0  0  0  0  0
    4.3110    3.6118   -0.0400 H   0  0  0  0  0  0  0  0  0  0  0  0
    6.4171    0.1586   -1.4901 H   0  0  0  0  0  0  0  0  0  0  0  0
   -4.2820    3.7640   -1.5226 H   0  0  0  0  0  0  0  0  0  0  0  0
   -1.6336    4.1681    1.8370 H   0  0  0  0  0  0  0  0  0  0  0  0
    6.1566    2.6227   -1.3703 H   0  0  0  0  0  0  0  0  0  0  0  0
   -3.0763    5.1996    0.1024 H   0  0  0  0  0  0  0  0  0  0  0  0
  1  3  2  0  0  0  0
  1  4  2  0  0  0  0
  1  6  1  0  0  0  0
  1 19  1  0  0  0  0
  2 23  1  0  0  0  0
  5 16  2  0  0  0  0
  6 11  1  0  0  0  0
  6 12  1  0  0  0  0
  7 13  1  0  0  0  0
  7 14  1  0  0  0  0
  7 16  1  0  0  0  0
  8 10  1  0  0  0  0
  8 11  1  0  0  0  0
  8 13  1  0  0  0  0
  8 31  1  0  0  0  0
  9 10  1  0  0  0  0
  9 12  1  0  0  0  0
  9 14  1  0  0  0  0
  9 32  1  0  0  0  0
 10 33  1  0  0  0  0
 10 34  1  0  0  0  0
 11 35  1  0  0  0  0
 11 36  1  0  0  0  0
 12 37  1  0  0  0  0
 12 38  1  0  0  0  0
 13 39  1  0  0  0  0
 13 40  1  0  0  0  0
 14 15  2  0  0  0  0
 15 17  1  0  0  0  0
 15 20  1  0  0  0  0
 16 18  1  0  0  0  0
 17 18  2  0  0  0  0
 17 41  1  0  0  0  0
 18 42  1  0  0  0  0
 19 21  2  0  0  0  0
 19 22  1  0  0  0  0
 20 23  1  0  0  0  0
 20 24  2  0  0  0  0
 21 25  1  0  0  0  0
 21 43  1  0  0  0  0
 22 26  2  0  0  0  0
 22 44  1  0  0  0  0
 23 27  2  0  0  0  0
 24 28  1  0  0  0  0
 24 45  1  0  0  0  0
 25 29  2  0  0  0  0
 25 46  1  0  0  0  0
 26 29  1  0  0  0  0
 26 47  1  0  0  0  0
 27 30  1  0  0  0  0
 27 48  1  0  0  0  0
 28 30  2  0  0  0  0
 28 49  1  0  0  0  0
 29 50  1  0  0  0  0
 30 51  1  0  0  0  0
M  END
> <PUBCHEM_COMPOUND_CID>
9424526

> <PUBCHEM_CONFORMER_RMSD>
0.8

> <PUBCHEM_CONFORMER_DIVERSEORDER>
1
6
9
8
11
4
2
10
5
7
12
3

> <PUBCHEM_MMFF94_PARTIAL_CHARGES>
39
1 1.45
11 0.36
12 0.36
13 0.3
14 -0.03
15 -0.03
16 0.62
17 -0.15
18 -0.14
19 -0.01
2 -0.19
20 0.03
21 -0.15
22 -0.15
23 0.19
24 -0.15
25 -0.15
26 -0.15
27 -0.15
28 -0.15
29 -0.15
3 -0.65
30 -0.15
4 -0.65
41 0.15
42 0.15
43 0.15
44 0.15
45 0.15
46 0.15
47 0.15
48 0.15
49 0.15
5 -0.57
50 0.15
51 0.15
6 -0.85
7 -0.47
9 0.14

> <PUBCHEM_EFFECTIVE_ROTOR_COUNT>
4

> <PUBCHEM_PHARMACOPHORE_FEATURES>
8
1 3 acceptor
1 4 acceptor
1 5 acceptor
6 19 21 22 25 26 29 rings
6 20 23 24 27 28 30 rings
6 6 8 9 10 11 12 rings
6 7 14 15 16 17 18 rings
6 7 8 9 10 13 14 rings

> <PUBCHEM_HEAVY_ATOM_COUNT>
30

> <PUBCHEM_ATOM_DEF_STEREO_COUNT>
2

> <PUBCHEM_ATOM_UDEF_STEREO_COUNT>
0

> <PUBCHEM_BOND_DEF_STEREO_COUNT>
0

> <PUBCHEM_BOND_UDEF_STEREO_COUNT>
0

> <PUBCHEM_ISOTOPIC_ATOM_COUNT>
0

> <PUBCHEM_COMPONENT_COUNT>
1

> <PUBCHEM_CACTVS_TAUTO_COUNT>
1

> <PUBCHEM_CONFORMER_ID>
008FCE8E00000001

> <PUBCHEM_MMFF94_ENERGY>
74.6354

> <PUBCHEM_FEATURE_SELFOVERLAP>
42.199

> <PUBCHEM_SHAPE_FINGERPRINT>
10366900 7 18131625682146025777
10906281 52 18342185445095833841
11552529 35 18261668267979606114
11578080 2 17914923970936882595
11763715 3 17836366317374413342
12107183 9 18045211640663055906
12156800 1 15330184532541571345
12633257 1 17899687960542449714
12788726 201 18336814390554542203
13583140 156 17676212338013758833
13726171 33 18271260373493531784
13965767 371 17534354331450923413
13994607 96 18342453755543894285
14251751 93 18341336677647563728
14251757 17 17630636490758709996
14251764 38 18196649601496041877
14466204 15 17472974004625387298
14713325 29 18269850838071726242
14787075 74 17610341915301748450
14955137 171 17690011449381660954
15163728 17 18196938768769787581
17980427 26 17832975054189057271
19315092 285 16881567955911639714
21860390 5 17409079201901871438
21864079 5 18341320180767889548
22907989 373 18271236222559505565
22956985 138 16603518142563485699
23559900 14 18055350228355058270
238 59 17202186439744891721
3380486 145 18267037227035884443
460360 51 18269010704120183510
469060 322 17701519935000767359
474 4 17981318993897401837
9981440 41 18270670957834853275

> <PUBCHEM_SHAPE_MULTIPOLES>
586.39
9.7
4.74
1.74
11.26
1.1
-0.04
6.31
-0.05
-5.24
0.22
0.09
-0.56
0.5

> <PUBCHEM_SHAPE_SELFOVERLAP>
1284.822

> <PUBCHEM_SHAPE_VOLUME>
318.9

> <PUBCHEM_COORDINATE_TYPE>
2
5
10

$$$$
