45783365
  -OEChem-12032416273D

 49 52  0     1  0  0  0  0  0999 V2000
   -2.3738   -0.9464   -1.7959 O   0  0  0  0  0  0  0  0  0  0  0  0
    4.0773    0.2479    0.4413 O   0  0  0  0  0  0  0  0  0  0  0  0
    6.1885    2.0854    0.4573 O   0  0  0  0  0  0  0  0  0  0  0  0
   -3.4861    1.6063    0.3478 N   0  0  1  0  0  0  0  0  0  0  0  0
   -0.8443    0.3573   -0.8070 N   0  0  0  0  0  0  0  0  0  0  0  0
   -2.5460   -0.4589    2.3518 N   0  0  0  0  0  0  0  0  0  0  0  0
   -3.8934   -1.7954    1.1984 N   0  0  0  0  0  0  0  0  0  0  0  0
   -1.1772   -1.6741   -1.8052 N   0  0  0  0  0  0  0  0  0  0  0  0
    3.7431   -1.8141   -0.5691 N   0  0  0  0  0  0  0  0  0  0  0  0
   -3.2362    1.2170   -1.0543 C   0  0  1  0  0  0  0  0  0  0  0  0
   -2.9734    2.5451   -1.7881 C   0  0  0  0  0  0  0  0  0  0  0  0
   -3.1574    3.6259   -0.7324 C   0  0  0  0  0  0  0  0  0  0  0  0
   -4.0353    2.9618    0.3090 C   0  0  0  0  0  0  0  0  0  0  0  0
   -4.3619    0.6799    1.0539 C   0  0  0  0  0  0  0  0  0  0  0  0
   -2.0900    0.2368   -1.1910 C   0  0  0  0  0  0  0  0  0  0  0  0
   -3.6236   -0.5485    1.5151 C   0  0  0  0  0  0  0  0  0  0  0  0
   -0.3234   -0.8394   -1.2050 C   0  0  0  0  0  0  0  0  0  0  0  0
   -2.1004   -1.7298    2.5833 C   0  0  0  0  0  0  0  0  0  0  0  0
    1.0556   -1.1697   -0.9893 C   0  0  0  0  0  0  0  0  0  0  0  0
   -2.9475   -2.5369    1.8610 C   0  0  0  0  0  0  0  0  0  0  0  0
    1.9010   -0.2622   -0.3605 C   0  0  0  0  0  0  0  0  0  0  0  0
    1.5525   -2.3990   -1.4083 C   0  0  0  0  0  0  0  0  0  0  0  0
    3.2243   -0.6292   -0.1759 C   0  0  0  0  0  0  0  0  0  0  0  0
    2.8914   -2.6704   -1.1768 C   0  0  0  0  0  0  0  0  0  0  0  0
    5.4247   -0.1785    0.6057 C   0  0  0  0  0  0  0  0  0  0  0  0
    6.2144    0.9261    1.2810 C   0  0  0  0  0  0  0  0  0  0  0  0
    6.8969    3.1633    1.0530 C   0  0  0  0  0  0  0  0  0  0  0  0
   -4.1361    0.7705   -1.5006 H   0  0  0  0  0  0  0  0  0  0  0  0
   -1.9805    2.6126   -2.2456 H   0  0  0  0  0  0  0  0  0  0  0  0
   -3.7177    2.6799   -2.5826 H   0  0  0  0  0  0  0  0  0  0  0  0
   -3.6077    4.5339   -1.1439 H   0  0  0  0  0  0  0  0  0  0  0  0
   -2.1853    3.8930   -0.2994 H   0  0  0  0  0  0  0  0  0  0  0  0
   -5.0832    2.9672   -0.0173 H   0  0  0  0  0  0  0  0  0  0  0  0
   -3.9609    3.4652    1.2778 H   0  0  0  0  0  0  0  0  0  0  0  0
   -5.2343    0.3945    0.4529 H   0  0  0  0  0  0  0  0  0  0  0  0
   -4.7567    1.1597    1.9601 H   0  0  0  0  0  0  0  0  0  0  0  0
   -2.1487    0.3914    2.7288 H   0  0  0  0  0  0  0  0  0  0  0  0
   -1.2500   -1.9346    3.2173 H   0  0  0  0  0  0  0  0  0  0  0  0
   -2.9236   -3.6141    1.7834 H   0  0  0  0  0  0  0  0  0  0  0  0
    1.5575    0.7085   -0.0165 H   0  0  0  0  0  0  0  0  0  0  0  0
    0.9410   -3.1461   -1.9035 H   0  0  0  0  0  0  0  0  0  0  0  0
    3.3283   -3.6148   -1.4841 H   0  0  0  0  0  0  0  0  0  0  0  0
    5.8650   -0.3811   -0.3786 H   0  0  0  0  0  0  0  0  0  0  0  0
    5.4640   -1.0819    1.2257 H   0  0  0  0  0  0  0  0  0  0  0  0
    5.7591    1.1679    2.2485 H   0  0  0  0  0  0  0  0  0  0  0  0
    7.2499    0.6044    1.4372 H   0  0  0  0  0  0  0  0  0  0  0  0
    7.9475    2.8961    1.2026 H   0  0  0  0  0  0  0  0  0  0  0  0
    6.8482    4.0220    0.3781 H   0  0  0  0  0  0  0  0  0  0  0  0
    6.4392    3.4430    2.0068 H   0  0  0  0  0  0  0  0  0  0  0  0
  1  8  1  0  0  0  0
  1 15  1  0  0  0  0
  2 23  1  0  0  0  0
  2 25  1  0  0  0  0
  3 26  1  0  0  0  0
  3 27  1  0  0  0  0
  4 10  1  0  0  0  0
  4 13  1  0  0  0  0
  4 14  1  0  0  0  0
  5 15  2  0  0  0  0
  5 17  1  0  0  0  0
  6 16  1  0  0  0  0
  6 18  1  0  0  0  0
  6 37  1  0  0  0  0
  7 16  2  0  0  0  0
  7 20  1  0  0  0  0
  8 17  2  0  0  0  0
  9 23  2  0  0  0  0
  9 24  1  0  0  0  0
 10 11  1  0  0  0  0
 10 15  1  0  0  0  0
 10 28  1  0  0  0  0
 11 12  1  0  0  0  0
 11 29  1  0  0  0  0
 11 30  1  0  0  0  0
 12 13  1  0  0  0  0
 12 31  1  0  0  0  0
 12 32  1  0  0  0  0
 13 33  1  0  0  0  0
 13 34  1  0  0  0  0
 14 16  1  0  0  0  0
 14 35  1  0  0  0  0
 14 36  1  0  0  0  0
 17 19  1  0  0  0  0
 18 20  2  0  0  0  0
 18 38  1  0  0  0  0
 19 21  2  0  0  0  0
 19 22  1  0  0  0  0
 20 39  1  0  0  0  0
 21 23  1  0  0  0  0
 21 40  1  0  0  0  0
 22 24  2  0  0  0  0
 22 41  1  0  0  0  0
 24 42  1  0  0  0  0
 25 26  1  0  0  0  0
 25 43  1  0  0  0  0
 25 44  1  0  0  0  0
 26 45  1  0  0  0  0
 26 46  1  0  0  0  0
 27 47  1  0  0  0  0
 27 48  1  0  0  0  0
 27 49  1  0  0  0  0
M  END
> <PUBCHEM_COMPOUND_CID>
45783365

> <PUBCHEM_CONFORMER_RMSD>
1

> <PUBCHEM_CONFORMER_DIVERSEORDER>
1
55
16
19
59
41
12
26
61
60
68
45
8
25
5
58
32
33
47
63
51
40
67
52
9
7
43
6
57
42
24
36
38
48
49
18
31
46
50
11
66
27
30
20
22
10
62
14
34
65
23
44
39
13
29
53
56
3
35
28
21
2
64
15
17
54
37
4

> <PUBCHEM_MMFF94_PARTIAL_CHARGES>
31
1 -0.02
10 0.45
13 0.27
14 0.45
15 0.3
16 0.01
17 0.46
18 -0.3
19 0.05
2 -0.36
20 0.08
21 -0.15
22 -0.15
23 0.39
24 0.16
25 0.28
26 0.28
27 0.28
3 -0.56
37 0.27
38 0.15
39 0.15
4 -0.81
40 0.15
41 0.15
42 0.15
5 -0.57
6 0.03
7 -0.57
8 -0.41
9 -0.62

> <PUBCHEM_EFFECTIVE_ROTOR_COUNT>
9

> <PUBCHEM_PHARMACOPHORE_FEATURES>
9
1 3 acceptor
1 4 cation
1 6 donor
3 5 8 17 cation
3 6 7 16 cation
5 1 5 8 15 17 rings
5 4 10 11 12 13 rings
5 6 7 16 18 20 rings
6 9 19 21 22 23 24 rings

> <PUBCHEM_HEAVY_ATOM_COUNT>
27

> <PUBCHEM_ATOM_DEF_STEREO_COUNT>
1

> <PUBCHEM_ATOM_UDEF_STEREO_COUNT>
0

> <PUBCHEM_BOND_DEF_STEREO_COUNT>
0

> <PUBCHEM_BOND_UDEF_STEREO_COUNT>
0

> <PUBCHEM_ISOTOPIC_ATOM_COUNT>
0

> <PUBCHEM_COMPONENT_COUNT>
1

> <PUBCHEM_CACTVS_TAUTO_COUNT>
1

> <PUBCHEM_CONFORMER_ID>
02BA994500000001

> <PUBCHEM_MMFF94_ENERGY>
47.3402

> <PUBCHEM_FEATURE_SELFOVERLAP>
45.675

> <PUBCHEM_SHAPE_FINGERPRINT>
10319926 262 18041564633571438010
10930396 42 17967805081443835753
11273773 118 18271811276569413412
12390115 104 17845938558500361614
12422481 6 18041266679058661212
12523318 42 17530965795533032841
12633257 1 17241059716268192301
13004483 165 17897750845041733459
13583140 156 18269283382344813607
13761468 95 14116148705787869786
13994607 96 16056885719524877355
14081887 123 18040729034514119707
14178342 30 17604156930066821879
14790565 3 18271515507868078588
14950920 106 17532071870514681888
15348495 7 18260827069265817210
15513586 35 18116998999374923652
16067690 210 18187911843089531016
16120349 306 16588293965109259473
18927931 339 12757427203136805936
19377110 9 16081097013023817430
20554085 129 17387964280231009733
22956985 138 16889493381996474051
23559900 14 17826531975768901254
3459 110 18042126608255845368
3552219 110 17057521719774235615
376196 1 17835230152453469981
392239 28 16660636397848551016
469060 322 18200307870139959863
484985 159 12324239464874558377
497634 4 16988559160399052991
5104073 3 18187634796518611546
5364581 5 18188776175066303472
57724786 102 17773605914134279472
602551 16 17532110322571041982
6034566 193 17917711331365226366
90127 26 18341616962797085894
9981440 41 18340472383676695446

> <PUBCHEM_SHAPE_MULTIPOLES>
508.15
13.46
3.8
2.21
25.08
2.41
0.63
10.85
6.72
-0.47
-0.06
-1.75
-1.09
4.22

> <PUBCHEM_SHAPE_SELFOVERLAP>
1089.353

> <PUBCHEM_SHAPE_VOLUME>
281.3

> <PUBCHEM_COORDINATE_TYPE>
2
5
10

$$$$
