45783498
  -OEChem-12032416363D

 56 60  0     1  0  0  0  0  0999 V2000
   -2.5225   -1.7963    1.8775 O   0  0  0  0  0  0  0  0  0  0  0  0
   -2.2196    1.7752   -1.0621 O   0  0  0  0  0  0  0  0  0  0  0  0
    7.3327    0.1944   -0.3460 O   0  0  0  0  0  0  0  0  0  0  0  0
   -4.3020   -0.2907   -0.9635 N   0  0  1  0  0  0  0  0  0  0  0  0
   -1.5980   -1.1846   -0.0687 N   0  0  0  0  0  0  0  0  0  0  0  0
   -1.1364   -1.8379    2.0747 N   0  0  0  0  0  0  0  0  0  0  0  0
    3.0205   -1.5727    1.3948 N   0  0  0  0  0  0  0  0  0  0  0  0
    4.8205   -1.0942   -0.0906 N   0  0  0  0  0  0  0  0  0  0  0  0
   -4.1428   -1.2781    0.1227 C   0  0  1  0  0  0  0  0  0  0  0  0
   -4.6949   -2.5924   -0.4594 C   0  0  0  0  0  0  0  0  0  0  0  0
   -5.1960   -2.2317   -1.8506 C   0  0  0  0  0  0  0  0  0  0  0  0
   -5.4405   -0.7386   -1.7657 C   0  0  0  0  0  0  0  0  0  0  0  0
   -4.4750    1.0729   -0.4795 C   0  0  0  0  0  0  0  0  0  0  0  0
   -2.7079   -1.4030    0.5902 C   0  0  0  0  0  0  0  0  0  0  0  0
   -3.1632    1.6995   -0.0876 C   0  0  0  0  0  0  0  0  0  0  0  0
   -2.6922    2.2338    1.0893 C   0  0  0  0  0  0  0  0  0  0  0  0
   -1.3667    2.6706    0.8284 C   0  0  0  0  0  0  0  0  0  0  0  0
   -0.6610   -1.4644    0.8829 C   0  0  0  0  0  0  0  0  0  0  0  0
   -1.1243    2.3663   -0.5071 C   0  0  0  0  0  0  0  0  0  0  0  0
    0.7436   -1.3623    0.6100 C   0  0  0  0  0  0  0  0  0  0  0  0
   -0.3464    3.2887    1.5724 C   0  0  0  0  0  0  0  0  0  0  0  0
    0.0745    2.6357   -1.1649 C   0  0  0  0  0  0  0  0  0  0  0  0
    0.8710    3.5718    0.9381 C   0  0  0  0  0  0  0  0  0  0  0  0
    1.0751    3.2504   -0.4062 C   0  0  0  0  0  0  0  0  0  0  0  0
    1.2036   -0.9718   -0.6427 C   0  0  0  0  0  0  0  0  0  0  0  0
    1.6843   -1.6491    1.5860 C   0  0  0  0  0  0  0  0  0  0  0  0
    2.5712   -0.8815   -0.8778 C   0  0  0  0  0  0  0  0  0  0  0  0
    3.4302   -1.1899    0.1648 C   0  0  0  0  0  0  0  0  0  0  0  0
    5.3459   -0.6999   -1.3572 C   0  0  0  0  0  0  0  0  0  0  0  0
    6.8644   -0.7283   -1.3216 C   0  0  0  0  0  0  0  0  0  0  0  0
    8.7520    0.2077   -0.2806 C   0  0  0  0  0  0  0  0  0  0  0  0
   -4.7667   -1.0098    0.9869 H   0  0  0  0  0  0  0  0  0  0  0  0
   -3.9559   -3.3994   -0.5092 H   0  0  0  0  0  0  0  0  0  0  0  0
   -5.5346   -2.9427    0.1532 H   0  0  0  0  0  0  0  0  0  0  0  0
   -6.0965   -2.7897   -2.1236 H   0  0  0  0  0  0  0  0  0  0  0  0
   -4.4201   -2.4508   -2.5947 H   0  0  0  0  0  0  0  0  0  0  0  0
   -6.3959   -0.5373   -1.2646 H   0  0  0  0  0  0  0  0  0  0  0  0
   -5.4539   -0.2764   -2.7576 H   0  0  0  0  0  0  0  0  0  0  0  0
   -5.1921    1.1315    0.3488 H   0  0  0  0  0  0  0  0  0  0  0  0
   -4.8810    1.7012   -1.2841 H   0  0  0  0  0  0  0  0  0  0  0  0
   -3.2347    2.3001    2.0220 H   0  0  0  0  0  0  0  0  0  0  0  0
   -0.4904    3.5440    2.6178 H   0  0  0  0  0  0  0  0  0  0  0  0
    0.2259    2.3815   -2.2071 H   0  0  0  0  0  0  0  0  0  0  0  0
    1.6686    4.0485    1.5023 H   0  0  0  0  0  0  0  0  0  0  0  0
    2.0304    3.4806   -0.8714 H   0  0  0  0  0  0  0  0  0  0  0  0
    0.5196   -0.7327   -1.4529 H   0  0  0  0  0  0  0  0  0  0  0  0
    1.4082   -1.9601    2.5892 H   0  0  0  0  0  0  0  0  0  0  0  0
    2.8952   -0.5722   -1.8644 H   0  0  0  0  0  0  0  0  0  0  0  0
    5.4381   -1.3188    0.6811 H   0  0  0  0  0  0  0  0  0  0  0  0
    5.0112   -1.3770   -2.1516 H   0  0  0  0  0  0  0  0  0  0  0  0
    5.0241    0.3211   -1.5961 H   0  0  0  0  0  0  0  0  0  0  0  0
    7.2201   -1.7356   -1.0725 H   0  0  0  0  0  0  0  0  0  0  0  0
    7.2581   -0.4502   -2.3062 H   0  0  0  0  0  0  0  0  0  0  0  0
    9.1778    0.5133   -1.2412 H   0  0  0  0  0  0  0  0  0  0  0  0
    9.0546    0.9315    0.4810 H   0  0  0  0  0  0  0  0  0  0  0  0
    9.1323   -0.7780    0.0043 H   0  0  0  0  0  0  0  0  0  0  0  0
  1  6  1  0  0  0  0
  1 14  1  0  0  0  0
  2 15  1  0  0  0  0
  2 19  1  0  0  0  0
  3 30  1  0  0  0  0
  3 31  1  0  0  0  0
  4  9  1  0  0  0  0
  4 12  1  0  0  0  0
  4 13  1  0  0  0  0
  5 14  2  0  0  0  0
  5 18  1  0  0  0  0
  6 18  2  0  0  0  0
  7 26  1  0  0  0  0
  7 28  2  0  0  0  0
  8 28  1  0  0  0  0
  8 29  1  0  0  0  0
  8 49  1  0  0  0  0
  9 10  1  0  0  0  0
  9 14  1  0  0  0  0
  9 32  1  0  0  0  0
 10 11  1  0  0  0  0
 10 33  1  0  0  0  0
 10 34  1  0  0  0  0
 11 12  1  0  0  0  0
 11 35  1  0  0  0  0
 11 36  1  0  0  0  0
 12 37  1  0  0  0  0
 12 38  1  0  0  0  0
 13 15  1  0  0  0  0
 13 39  1  0  0  0  0
 13 40  1  0  0  0  0
 15 16  2  0  0  0  0
 16 17  1  0  0  0  0
 16 41  1  0  0  0  0
 17 19  1  0  0  0  0
 17 21  2  0  0  0  0
 18 20  1  0  0  0  0
 19 22  2  0  0  0  0
 20 25  1  0  0  0  0
 20 26  2  0  0  0  0
 21 23  1  0  0  0  0
 21 42  1  0  0  0  0
 22 24  1  0  0  0  0
 22 43  1  0  0  0  0
 23 24  2  0  0  0  0
 23 44  1  0  0  0  0
 24 45  1  0  0  0  0
 25 27  2  0  0  0  0
 25 46  1  0  0  0  0
 26 47  1  0  0  0  0
 27 28  1  0  0  0  0
 27 48  1  0  0  0  0
 29 30  1  0  0  0  0
 29 50  1  0  0  0  0
 29 51  1  0  0  0  0
 30 52  1  0  0  0  0
 30 53  1  0  0  0  0
 31 54  1  0  0  0  0
 31 55  1  0  0  0  0
 31 56  1  0  0  0  0
M  END
> <PUBCHEM_COMPOUND_CID>
45783498

> <PUBCHEM_CONFORMER_RMSD>
1

> <PUBCHEM_CONFORMER_DIVERSEORDER>
1
46
116
68
3
40
147
143
113
42
96
26
120
87
91
44
138
33
154
88
140
37
83
129
124
149
43
86
127
121
80
12
76
74
145
79
148
107
22
125
151
130
49
58
39
34
13
55
38
78
17
119
47
4
11
36
62
60
133
131
65
135
111
156
150
48
122
115
98
59
134
101
31
137
132
51
2
155
152
23
114
70
141
103
105
6
99
136
20
82
153
71
21
92
35
15
64
126
95
69
139
50
28
108
100
102
19
118
24
5
81
53
18
97
7
84
144
75
32
77
54
9
63
110
16
146
57
67
142
45
73
41
109
89
112
128
66
8
123
117
90
61
94
106
85
29
10
52
25
104
27
93
30
14
56
72

> <PUBCHEM_MMFF94_PARTIAL_CHARGES>
37
1 -0.02
12 0.27
13 0.45
14 0.3
15 -0.04
16 -0.15
18 0.46
19 0.14
2 -0.28
20 0.05
21 -0.15
22 -0.15
23 -0.15
24 -0.15
25 -0.15
26 0.16
27 -0.15
28 0.41
29 0.37
3 -0.56
30 0.28
31 0.28
4 -0.81
41 0.15
42 0.15
43 0.15
44 0.15
45 0.15
46 0.15
47 0.15
48 0.15
49 0.4
5 -0.57
6 -0.41
7 -0.62
8 -0.87
9 0.45

> <PUBCHEM_EFFECTIVE_ROTOR_COUNT>
9

> <PUBCHEM_PHARMACOPHORE_FEATURES>
11
1 2 acceptor
1 3 acceptor
1 4 cation
1 8 donor
3 5 6 18 cation
3 7 8 28 cation
5 1 5 6 14 18 rings
5 2 15 16 17 19 rings
5 4 9 10 11 12 rings
6 17 19 21 22 23 24 rings
6 7 20 25 26 27 28 rings

> <PUBCHEM_HEAVY_ATOM_COUNT>
31

> <PUBCHEM_ATOM_DEF_STEREO_COUNT>
1

> <PUBCHEM_ATOM_UDEF_STEREO_COUNT>
0

> <PUBCHEM_BOND_DEF_STEREO_COUNT>
0

> <PUBCHEM_BOND_UDEF_STEREO_COUNT>
0

> <PUBCHEM_ISOTOPIC_ATOM_COUNT>
0

> <PUBCHEM_COMPONENT_COUNT>
1

> <PUBCHEM_CACTVS_TAUTO_COUNT>
8

> <PUBCHEM_CONFORMER_ID>
02BA99CA00000001

> <PUBCHEM_MMFF94_ENERGY>
61.6219

> <PUBCHEM_FEATURE_SELFOVERLAP>
55.925

> <PUBCHEM_SHAPE_FINGERPRINT>
10454371 7 18341060631915716836
1100329 8 18339920421199248225
11477941 20 18272362083948877388
12156800 1 14713055911807338277
12788726 201 18264205820456741011
13782708 43 17560806477351626462
14068700 675 18201999953841299277
14394314 77 18188778231870634116
14931854 50 18187638081520025887
15876981 60 18411145718386885605
17492 54 18114456752486665809
18336668 15 18113908160102760245
20609170 92 18115582798665802468
20642791 35 18337373986670995257
20691752 17 17532070822684871661
20721686 56 18338517573021177848
20775438 99 17478020106326741711
20905425 154 18195525020682041085
21344244 246 17910666893467951215
22899556 105 17838622515340267127
23559900 14 18116709810683590549
392239 28 18339091410658867232
469060 322 16879380898266149192
484989 97 17896886658967546851
5171179 24 18200588206528532520

> <PUBCHEM_SHAPE_MULTIPOLES>
595.45
14.75
4.07
1.69
31.56
4.01
0.25
-8
-7.68
-2.8
0.8
-0.7
-0.49
-0.65

> <PUBCHEM_SHAPE_SELFOVERLAP>
1298.422

> <PUBCHEM_SHAPE_VOLUME>
326.8

> <PUBCHEM_COORDINATE_TYPE>
2
5
10

$$$$
