75537069
  -OEChem-12032416333D

 46 49  0     1  0  0  0  0  0999 V2000
    2.0729   -2.5666   -0.7777 O   0  0  0  0  0  0  0  0  0  0  0  0
    0.3024   -1.3351    0.1538 N   0  0  0  0  0  0  0  0  0  0  0  0
   -2.0433    0.2126    0.2691 N   0  0  2  0  0  0  0  0  0  0  0  0
    2.3742   -0.9863    0.9474 N   0  0  0  0  0  0  0  0  0  0  0  0
    4.9577    1.1062    0.9222 N   0  0  0  0  0  0  0  0  0  0  0  0
    0.1178   -0.4214    1.2618 C   0  0  2  0  0  0  0  0  0  0  0  0
   -0.7907    0.7367    0.8505 C   0  0  0  0  0  0  0  0  0  0  0  0
    1.5416   -0.0175    1.6395 C   0  0  0  0  0  0  0  0  0  0  0  0
   -0.8546   -1.7966   -0.5846 C   0  0  0  0  0  0  0  0  0  0  0  0
   -1.7652   -0.6136   -0.9232 C   0  0  0  0  0  0  0  0  0  0  0  0
    1.6369   -1.7380    0.0104 C   0  0  0  0  0  0  0  0  0  0  0  0
   -2.9453    1.3122   -0.0723 C   0  0  0  0  0  0  0  0  0  0  0  0
    3.8090   -1.0289    1.1242 C   0  0  0  0  0  0  0  0  0  0  0  0
   -4.3805    0.8614   -0.1345 C   0  0  0  0  0  0  0  0  0  0  0  0
    4.5087    0.0039    0.2813 C   0  0  0  0  0  0  0  0  0  0  0  0
   -4.9142    0.3961   -1.3363 C   0  0  0  0  0  0  0  0  0  0  0  0
   -5.1763    0.9091    1.0100 C   0  0  0  0  0  0  0  0  0  0  0  0
    4.6575   -0.2176   -1.0784 C   0  0  0  0  0  0  0  0  0  0  0  0
   -6.2439   -0.0215   -1.3937 C   0  0  0  0  0  0  0  0  0  0  0  0
   -6.5060    0.4915    0.9526 C   0  0  0  0  0  0  0  0  0  0  0  0
    5.3093    0.7549   -1.8284 C   0  0  0  0  0  0  0  0  0  0  0  0
   -7.0398    0.0263   -0.2492 C   0  0  0  0  0  0  0  0  0  0  0  0
    5.5862    2.0295    0.1604 C   0  0  0  0  0  0  0  0  0  0  0  0
    5.7856    1.9029   -1.2048 C   0  0  0  0  0  0  0  0  0  0  0  0
   -0.3390   -0.9961    2.0782 H   0  0  0  0  0  0  0  0  0  0  0  0
   -1.0058    1.3407    1.7403 H   0  0  0  0  0  0  0  0  0  0  0  0
   -0.2827    1.3858    0.1243 H   0  0  0  0  0  0  0  0  0  0  0  0
    1.8048    0.9838    1.2835 H   0  0  0  0  0  0  0  0  0  0  0  0
    1.7122   -0.0787    2.7185 H   0  0  0  0  0  0  0  0  0  0  0  0
   -1.3799   -2.5180    0.0519 H   0  0  0  0  0  0  0  0  0  0  0  0
   -0.5277   -2.3180   -1.4899 H   0  0  0  0  0  0  0  0  0  0  0  0
   -1.2912   -0.0060   -1.7057 H   0  0  0  0  0  0  0  0  0  0  0  0
   -2.6817   -1.0377   -1.3415 H   0  0  0  0  0  0  0  0  0  0  0  0
   -2.6553    1.8085   -1.0087 H   0  0  0  0  0  0  0  0  0  0  0  0
   -2.8913    2.1006    0.6917 H   0  0  0  0  0  0  0  0  0  0  0  0
    4.0335   -0.8841    2.1868 H   0  0  0  0  0  0  0  0  0  0  0  0
    4.1704   -2.0255    0.8446 H   0  0  0  0  0  0  0  0  0  0  0  0
   -4.3139    0.3692   -2.2416 H   0  0  0  0  0  0  0  0  0  0  0  0
   -4.7726    1.2672    1.9533 H   0  0  0  0  0  0  0  0  0  0  0  0
    4.2903   -1.1177   -1.5583 H   0  0  0  0  0  0  0  0  0  0  0  0
   -6.6608   -0.3799   -2.3304 H   0  0  0  0  0  0  0  0  0  0  0  0
   -7.1258    0.5283    1.8438 H   0  0  0  0  0  0  0  0  0  0  0  0
    5.4474    0.6179   -2.8967 H   0  0  0  0  0  0  0  0  0  0  0  0
   -8.0754   -0.2980   -0.2940 H   0  0  0  0  0  0  0  0  0  0  0  0
    5.9385    2.9060    0.6943 H   0  0  0  0  0  0  0  0  0  0  0  0
    6.2970    2.6739   -1.7696 H   0  0  0  0  0  0  0  0  0  0  0  0
  1 11  2  0  0  0  0
  2  6  1  0  0  0  0
  2  9  1  0  0  0  0
  2 11  1  0  0  0  0
  3  7  1  0  0  0  0
  3 10  1  0  0  0  0
  3 12  1  0  0  0  0
  4  8  1  0  0  0  0
  4 11  1  0  0  0  0
  4 13  1  0  0  0  0
  5 15  1  0  0  0  0
  5 23  2  0  0  0  0
  6  7  1  0  0  0  0
  6  8  1  0  0  0  0
  6 25  1  0  0  0  0
  7 26  1  0  0  0  0
  7 27  1  0  0  0  0
  8 28  1  0  0  0  0
  8 29  1  0  0  0  0
  9 10  1  0  0  0  0
  9 30  1  0  0  0  0
  9 31  1  0  0  0  0
 10 32  1  0  0  0  0
 10 33  1  0  0  0  0
 12 14  1  0  0  0  0
 12 34  1  0  0  0  0
 12 35  1  0  0  0  0
 13 15  1  0  0  0  0
 13 36  1  0  0  0  0
 13 37  1  0  0  0  0
 14 16  2  0  0  0  0
 14 17  1  0  0  0  0
 15 18  2  0  0  0  0
 16 19  1  0  0  0  0
 16 38  1  0  0  0  0
 17 20  2  0  0  0  0
 17 39  1  0  0  0  0
 18 21  1  0  0  0  0
 18 40  1  0  0  0  0
 19 22  2  0  0  0  0
 19 41  1  0  0  0  0
 20 22  1  0  0  0  0
 20 42  1  0  0  0  0
 21 24  2  0  0  0  0
 21 43  1  0  0  0  0
 22 44  1  0  0  0  0
 23 24  1  0  0  0  0
 23 45  1  0  0  0  0
 24 46  1  0  0  0  0
M  END
> <PUBCHEM_COMPOUND_CID>
75537069

> <PUBCHEM_CONFORMER_RMSD>
0.8

> <PUBCHEM_CONFORMER_DIVERSEORDER>
2
84
57
54
80
61
76
13
12
34
86
37
44
67
40
36
52
46
71
56
26
38
68
85
77
43
24
11
19
83
59
42
79
48
81
7
41
28
47
74
35
39
30
73
14
49
18
78
63
82
8
10
23
45
21
70
69
66
32
1
75
64
6
55
20
60
22
15
58
87
50
62
16
29
3
9
4
31
65
25
27
53
51
33
72
17
5

> <PUBCHEM_MMFF94_PARTIAL_CHARGES>
33
1 -0.57
10 0.27
11 0.69
12 0.41
13 0.44
14 -0.14
15 0.17
16 -0.15
17 -0.15
18 -0.15
19 -0.15
2 -0.66
20 -0.15
21 -0.15
22 -0.15
23 0.16
24 -0.15
3 -0.81
38 0.15
39 0.15
4 -0.66
40 0.15
41 0.15
42 0.15
43 0.15
44 0.15
45 0.15
46 0.15
5 -0.62
6 0.3
7 0.27
8 0.3
9 0.3

> <PUBCHEM_EFFECTIVE_ROTOR_COUNT>
5.2

> <PUBCHEM_PHARMACOPHORE_FEATURES>
7
1 1 acceptor
1 3 cation
1 5 acceptor
5 2 4 6 8 11 rings
6 14 16 17 19 20 22 rings
6 2 3 6 7 9 10 rings
6 5 15 18 21 23 24 rings

> <PUBCHEM_HEAVY_ATOM_COUNT>
24

> <PUBCHEM_ATOM_DEF_STEREO_COUNT>
1

> <PUBCHEM_ATOM_UDEF_STEREO_COUNT>
0

> <PUBCHEM_BOND_DEF_STEREO_COUNT>
0

> <PUBCHEM_BOND_UDEF_STEREO_COUNT>
0

> <PUBCHEM_ISOTOPIC_ATOM_COUNT>
0

> <PUBCHEM_COMPONENT_COUNT>
1

> <PUBCHEM_CACTVS_TAUTO_COUNT>
1

> <PUBCHEM_CONFORMER_ID>
04809AAD00000002

> <PUBCHEM_MMFF94_ENERGY>
60.3746

> <PUBCHEM_FEATURE_SELFOVERLAP>
35.618

> <PUBCHEM_SHAPE_FINGERPRINT>
10 15 16226048920320710932
10498660 4 18343026635946902808
10533779 1 17898289661543323276
10638233 991 18343020008380394225
10670039 82 18339649928142800428
10753850 27 12895081687090216164
11719270 70 12829489238355749225
11796584 16 11887663000866487604
11961588 58 18341330076092886750
12730499 353 18411705365616438058
12760667 363 9727639397023738949
13533116 47 9871746893214036014
13685833 64 13039189199748205916
13914758 101 9223239533747323671
14251752 14 11671790355905400619
14251764 75 17098074998699419452
14347424 109 10665228172592389398
14461889 52 16732990850844980321
14528608 73 18272087197267193600
14767858 380 18272649056357002437
14840074 17 18409167723002434637
15183329 4 14836130948410803843
15188451 53 8862672270107796852
15301273 46 13984659235983577474
15352257 5 14261346986085061093
15475509 8 16343714222282067689
18335252 114 18334293172137967780
19319366 153 18334564729392146506
19784866 240 12391520792937792432
1979834 28 13551186659057128992
20511986 3 14707196718060127145
20567600 234 16226053313750241661
20567600 75 13110963115559921777
20832881 197 10807932665263282135
21150785 3 18341890827291883053
21304304 249 8574440833115676144
21344244 181 16415487059935712286
22061861 79 13758354475077554005
22079108 93 17022903462506923922
2215653 11 14549017675994096661
2303208 19 14764340566085034607
23081809 10 18342171125426455865
23522609 53 17774179928298333689
23536379 177 13830128395426641931
23559900 14 12607390109868950275
249057 3 18333731291732110442
2838139 119 18187356654067640564
3004659 81 16486978371684304316
33382 64 13038909928094973468
3411729 13 12397170097120882134
3472631 163 18338239379346669172
34797466 226 18409455764820265991
397830 11 16950859092858014377
4072396 5 11674878879187189897
4325135 7 17894631456932302363
4340502 62 16732701640452749731
504579 68 17417798540655990789
5207 217 18408604785933537841
531348 171 10519987037829332617
53794403 172 18196087974577989224
59682541 52 15482393062390211796
59755656 215 14045746997931510133
8509985 295 10665234739344027554
8988823 20 10881692329540432734
960060 61 15554450717264368536

> <PUBCHEM_SHAPE_MULTIPOLES>
468.12
18.08
1.84
1.52
11.55
0.34
-0.12
-9.01
-3.62
-2.53
-0.3
-0.4
-0.09
-0.88

> <PUBCHEM_SHAPE_SELFOVERLAP>
1006.018

> <PUBCHEM_SHAPE_VOLUME>
258

> <PUBCHEM_COORDINATE_TYPE>
2
5
10

$$$$
