7051765
  -OEChem-12032416113D

 51 55  0     1  0  0  0  0  0999 V2000
    0.8095   -2.3502    3.0568 O   0  0  0  0  0  0  0  0  0  0  0  0
    2.7122   -1.7903   -1.4325 O   0  0  0  0  0  0  0  0  0  0  0  0
   -0.4863   -1.8418    1.1730 N   0  0  0  0  0  0  0  0  0  0  0  0
    0.4364   -1.6500   -1.8286 N   0  0  0  0  0  0  0  0  0  0  0  0
    1.7082    0.2986   -1.4427 N   0  0  0  0  0  0  0  0  0  0  0  0
   -4.4971    2.3410    0.0130 N   0  0  0  0  0  0  0  0  0  0  0  0
   -0.7837   -3.5218   -0.7382 C   0  0  2  0  0  0  0  0  0  0  0  0
   -1.8277   -1.2983   -0.8872 C   0  0  2  0  0  0  0  0  0  0  0  0
   -2.1027   -2.7998   -0.9738 C   0  0  0  0  0  0  0  0  0  0  0  0
   -0.3222   -3.2194    0.6877 C   0  0  0  0  0  0  0  0  0  0  0  0
    0.2631   -3.1037   -1.7872 C   0  0  0  0  0  0  0  0  0  0  0  0
   -0.8218   -0.9042   -1.9922 C   0  0  0  0  0  0  0  0  0  0  0  0
   -1.2831   -0.8999    0.4898 C   0  0  0  0  0  0  0  0  0  0  0  0
   -1.5070    0.3217    1.0408 C   0  0  0  0  0  0  0  0  0  0  0  0
    0.1173   -1.5621    2.4120 C   0  0  0  0  0  0  0  0  0  0  0  0
    1.7033   -1.0906   -1.5552 C   0  0  0  0  0  0  0  0  0  0  0  0
   -0.8986    0.6458    2.3171 C   0  0  0  0  0  0  0  0  0  0  0  0
   -0.1217   -0.2143    2.9749 C   0  0  0  0  0  0  0  0  0  0  0  0
   -2.3307    1.3454    0.3613 C   0  0  0  0  0  0  0  0  0  0  0  0
   -1.7567    2.2396   -0.5279 C   0  0  0  0  0  0  0  0  0  0  0  0
   -3.6880    1.4308    0.5998 C   0  0  0  0  0  0  0  0  0  0  0  0
    2.6246    1.0926   -0.7118 C   0  0  0  0  0  0  0  0  0  0  0  0
   -2.5565    3.1909   -1.1515 C   0  0  0  0  0  0  0  0  0  0  0  0
   -3.9087    3.1997   -0.8497 C   0  0  0  0  0  0  0  0  0  0  0  0
    2.5370    2.4807   -0.7697 C   0  0  0  0  0  0  0  0  0  0  0  0
    3.6069    0.4803    0.0613 C   0  0  0  0  0  0  0  0  0  0  0  0
    3.4394    3.2629   -0.0488 C   0  0  0  0  0  0  0  0  0  0  0  0
    4.5092    1.2625    0.7823 C   0  0  0  0  0  0  0  0  0  0  0  0
    4.4254    2.6538    0.7272 C   0  0  0  0  0  0  0  0  0  0  0  0
   -0.9344   -4.6043   -0.8324 H   0  0  0  0  0  0  0  0  0  0  0  0
   -2.7779   -0.7910   -1.0888 H   0  0  0  0  0  0  0  0  0  0  0  0
   -2.8502   -3.1016   -0.2295 H   0  0  0  0  0  0  0  0  0  0  0  0
   -2.5089   -3.0587   -1.9593 H   0  0  0  0  0  0  0  0  0  0  0  0
   -0.8979   -3.8464    1.3827 H   0  0  0  0  0  0  0  0  0  0  0  0
    0.7269   -3.5148    0.8169 H   0  0  0  0  0  0  0  0  0  0  0  0
    1.2148   -3.6077   -1.5899 H   0  0  0  0  0  0  0  0  0  0  0  0
   -0.0655   -3.4146   -2.7863 H   0  0  0  0  0  0  0  0  0  0  0  0
   -1.2248   -1.1795   -2.9752 H   0  0  0  0  0  0  0  0  0  0  0  0
   -0.6813    0.1723   -2.0162 H   0  0  0  0  0  0  0  0  0  0  0  0
   -1.0781    1.6314    2.7365 H   0  0  0  0  0  0  0  0  0  0  0  0
    0.3337    0.0392    3.9247 H   0  0  0  0  0  0  0  0  0  0  0  0
    1.0130    0.8301   -1.9526 H   0  0  0  0  0  0  0  0  0  0  0  0
   -0.6920    2.2212   -0.7386 H   0  0  0  0  0  0  0  0  0  0  0  0
   -4.1914    0.7561    1.2858 H   0  0  0  0  0  0  0  0  0  0  0  0
   -2.1340    3.9046   -1.8493 H   0  0  0  0  0  0  0  0  0  0  0  0
   -4.5754    3.9223   -1.3086 H   0  0  0  0  0  0  0  0  0  0  0  0
    1.7741    2.9677   -1.3714 H   0  0  0  0  0  0  0  0  0  0  0  0
    3.7020   -0.5919    0.1763 H   0  0  0  0  0  0  0  0  0  0  0  0
    3.3739    4.3461   -0.0913 H   0  0  0  0  0  0  0  0  0  0  0  0
    5.2719    0.7891    1.3940 H   0  0  0  0  0  0  0  0  0  0  0  0
    5.1266    3.2627    1.2903 H   0  0  0  0  0  0  0  0  0  0  0  0
  1 15  2  0  0  0  0
  2 16  2  0  0  0  0
  3 10  1  0  0  0  0
  3 13  1  0  0  0  0
  3 15  1  0  0  0  0
  4 11  1  0  0  0  0
  4 12  1  0  0  0  0
  4 16  1  0  0  0  0
  5 16  1  0  0  0  0
  5 22  1  0  0  0  0
  5 42  1  0  0  0  0
  6 21  1  0  0  0  0
  6 24  2  0  0  0  0
  7  9  1  0  0  0  0
  7 10  1  0  0  0  0
  7 11  1  0  0  0  0
  7 30  1  0  0  0  0
  8  9  1  0  0  0  0
  8 12  1  0  0  0  0
  8 13  1  0  0  0  0
  8 31  1  0  0  0  0
  9 32  1  0  0  0  0
  9 33  1  0  0  0  0
 10 34  1  0  0  0  0
 10 35  1  0  0  0  0
 11 36  1  0  0  0  0
 11 37  1  0  0  0  0
 12 38  1  0  0  0  0
 12 39  1  0  0  0  0
 13 14  2  0  0  0  0
 14 17  1  0  0  0  0
 14 19  1  0  0  0  0
 15 18  1  0  0  0  0
 17 18  2  0  0  0  0
 17 40  1  0  0  0  0
 18 41  1  0  0  0  0
 19 20  1  0  0  0  0
 19 21  2  0  0  0  0
 20 23  2  0  0  0  0
 20 43  1  0  0  0  0
 21 44  1  0  0  0  0
 22 25  2  0  0  0  0
 22 26  1  0  0  0  0
 23 24  1  0  0  0  0
 23 45  1  0  0  0  0
 24 46  1  0  0  0  0
 25 27  1  0  0  0  0
 25 47  1  0  0  0  0
 26 28  2  0  0  0  0
 26 48  1  0  0  0  0
 27 29  2  0  0  0  0
 27 49  1  0  0  0  0
 28 29  1  0  0  0  0
 28 50  1  0  0  0  0
 29 51  1  0  0  0  0
M  END
> <PUBCHEM_COMPOUND_CID>
7051765

> <PUBCHEM_CONFORMER_RMSD>
0.8

> <PUBCHEM_CONFORMER_DIVERSEORDER>
1
18
8
16
4
17
15
7
3
6
2
11
10
14
5
9
12
13

> <PUBCHEM_MMFF94_PARTIAL_CHARGES>
39
1 -0.57
10 0.3
11 0.3
12 0.3
13 -0.03
14 -0.03
15 0.62
16 0.69
17 -0.15
18 -0.14
19 0.03
2 -0.57
20 -0.15
21 0.16
22 0.12
23 -0.15
24 0.16
25 -0.15
26 -0.15
27 -0.15
28 -0.15
29 -0.15
3 -0.47
4 -0.66
40 0.15
41 0.15
42 0.37
43 0.15
44 0.15
45 0.15
46 0.15
47 0.15
48 0.15
49 0.15
5 -0.55
50 0.15
51 0.15
6 -0.62
8 0.14

> <PUBCHEM_EFFECTIVE_ROTOR_COUNT>
5

> <PUBCHEM_PHARMACOPHORE_FEATURES>
9
1 1 acceptor
1 2 acceptor
1 5 donor
1 6 acceptor
6 22 25 26 27 28 29 rings
6 3 13 14 15 17 18 rings
6 3 7 8 9 10 13 rings
6 4 7 8 9 11 12 rings
6 6 19 20 21 23 24 rings

> <PUBCHEM_HEAVY_ATOM_COUNT>
29

> <PUBCHEM_ATOM_DEF_STEREO_COUNT>
2

> <PUBCHEM_ATOM_UDEF_STEREO_COUNT>
0

> <PUBCHEM_BOND_DEF_STEREO_COUNT>
0

> <PUBCHEM_BOND_UDEF_STEREO_COUNT>
0

> <PUBCHEM_ISOTOPIC_ATOM_COUNT>
0

> <PUBCHEM_COMPONENT_COUNT>
1

> <PUBCHEM_CACTVS_TAUTO_COUNT>
2

> <PUBCHEM_CONFORMER_ID>
006B99F500000001

> <PUBCHEM_MMFF94_ENERGY>
91.5464

> <PUBCHEM_FEATURE_SELFOVERLAP>
47.259

> <PUBCHEM_SHAPE_FINGERPRINT>
10871710 139 17545620292593258532
11370993 70 18272087184250709004
11582403 64 18261670385424480177
11725454 13 18043261153857689975
12156800 1 17126434611234035860
12422481 6 18051446073434662987
12788726 201 18047181140249215072
128993 33 16481121341799100904
13004483 165 17836076054403607588
14142880 1 16842228512170105882
14251764 3 18190482483598899241
14468879 13 18338809999436480016
14840074 17 17189559979024630048
14955137 171 17685203985260694258
17980427 23 17686022069493431763
19930381 70 18198350550395645565
20905425 154 17174899717960687845
21860390 5 17541641834390416597
23419403 2 17617433520535169729
238 59 18125460621491004869
35225 105 17313968418184265420
460360 51 18199767984851670756
469060 322 17405442481816213530
57527306 92 14752039002275969662
5895379 119 16829235171043378569

> <PUBCHEM_SHAPE_MULTIPOLES>
565.14
6.53
4.91
2.49
5.88
0.08
1.73
8.03
-0.43
-2.82
-1.5
-0.02
-1.57
0.44

> <PUBCHEM_SHAPE_SELFOVERLAP>
1248.516

> <PUBCHEM_SHAPE_VOLUME>
294.5

> <PUBCHEM_COORDINATE_TYPE>
2
5
10

$$$$
