51137521
  -OEChem-12032416243D

 53 56  0     1  0  0  0  0  0999 V2000
    1.9667   -1.1771    0.1721 O   0  0  0  0  0  0  0  0  0  0  0  0
   -8.2517    2.2813    1.0512 O   0  0  0  0  0  0  0  0  0  0  0  0
   -9.0802    0.4182    0.0466 O   0  0  0  0  0  0  0  0  0  0  0  0
   -2.0577   -0.9518   -0.2866 N   0  0  1  0  0  0  0  0  0  0  0  0
    2.0735   -3.4109    0.1191 N   0  0  0  0  0  0  0  0  0  0  0  0
    3.3638   -2.9198    0.0485 N   0  0  0  0  0  0  0  0  0  0  0  0
    7.2065    2.3986   -0.0813 N   0  0  0  0  0  0  0  0  0  0  0  0
   -0.2146   -2.2839    0.2859 C   0  0  1  0  0  0  0  0  0  0  0  0
   -0.7479   -1.5754    1.5432 C   0  0  0  0  0  0  0  0  0  0  0  0
   -0.8516   -1.5262   -0.8867 C   0  0  0  0  0  0  0  0  0  0  0  0
   -1.6267   -0.4479    1.0174 C   0  0  0  0  0  0  0  0  0  0  0  0
   -2.6486    0.0887   -1.1151 C   0  0  0  0  0  0  0  0  0  0  0  0
    1.2918   -2.3590    0.1901 C   0  0  0  0  0  0  0  0  0  0  0  0
   -4.0798    0.3623   -0.7356 C   0  0  0  0  0  0  0  0  0  0  0  0
    3.2531   -1.6123    0.0823 C   0  0  0  0  0  0  0  0  0  0  0  0
   -5.0850   -0.5240   -1.1224 C   0  0  0  0  0  0  0  0  0  0  0  0
   -4.4004    1.5017    0.0023 C   0  0  0  0  0  0  0  0  0  0  0  0
    4.2594   -0.5914    0.0406 C   0  0  0  0  0  0  0  0  0  0  0  0
   -6.4109   -0.2708   -0.7712 C   0  0  0  0  0  0  0  0  0  0  0  0
   -5.7263    1.7548    0.3535 C   0  0  0  0  0  0  0  0  0  0  0  0
   -6.7317    0.8684   -0.0331 C   0  0  0  0  0  0  0  0  0  0  0  0
    5.6063   -0.9427   -0.0506 C   0  0  0  0  0  0  0  0  0  0  0  0
    3.8913    0.7532    0.0907 C   0  0  0  0  0  0  0  0  0  0  0  0
    6.2167    1.3948   -0.0412 C   0  0  0  0  0  0  0  0  0  0  0  0
    6.5849    0.0502   -0.0915 C   0  0  0  0  0  0  0  0  0  0  0  0
    4.8699    1.7462    0.0499 C   0  0  0  0  0  0  0  0  0  0  0  0
   -8.1138    1.1323    0.3342 C   0  0  0  0  0  0  0  0  0  0  0  0
    6.8341    3.7988   -0.0374 C   0  0  0  0  0  0  0  0  0  0  0  0
    8.6086    2.0435   -0.1748 C   0  0  0  0  0  0  0  0  0  0  0  0
   -0.5952   -3.3148    0.2925 H   0  0  0  0  0  0  0  0  0  0  0  0
   -1.3519   -2.2807    2.1279 H   0  0  0  0  0  0  0  0  0  0  0  0
    0.0425   -1.1936    2.1980 H   0  0  0  0  0  0  0  0  0  0  0  0
   -0.1855   -0.7431   -1.2724 H   0  0  0  0  0  0  0  0  0  0  0  0
   -1.0941   -2.2050   -1.7117 H   0  0  0  0  0  0  0  0  0  0  0  0
   -2.4654   -0.2564    1.6940 H   0  0  0  0  0  0  0  0  0  0  0  0
   -1.0316    0.4700    0.9264 H   0  0  0  0  0  0  0  0  0  0  0  0
   -2.6568   -0.2327   -2.1663 H   0  0  0  0  0  0  0  0  0  0  0  0
   -2.0554    1.0132   -1.1038 H   0  0  0  0  0  0  0  0  0  0  0  0
   -4.8477   -1.4152   -1.6976 H   0  0  0  0  0  0  0  0  0  0  0  0
   -3.6260    2.1991    0.3110 H   0  0  0  0  0  0  0  0  0  0  0  0
   -7.1794   -0.9738   -1.0819 H   0  0  0  0  0  0  0  0  0  0  0  0
   -5.9313    2.6532    0.9289 H   0  0  0  0  0  0  0  0  0  0  0  0
    5.9155   -1.9845   -0.0911 H   0  0  0  0  0  0  0  0  0  0  0  0
    2.8524    1.0655    0.1618 H   0  0  0  0  0  0  0  0  0  0  0  0
    7.6183   -0.2743   -0.1626 H   0  0  0  0  0  0  0  0  0  0  0  0
    4.5331    2.7773    0.0921 H   0  0  0  0  0  0  0  0  0  0  0  0
    6.2042    4.0680   -0.8926 H   0  0  0  0  0  0  0  0  0  0  0  0
    6.3114    4.0403    0.8947 H   0  0  0  0  0  0  0  0  0  0  0  0
    7.7123    4.4528   -0.0798 H   0  0  0  0  0  0  0  0  0  0  0  0
    8.9251    1.4490    0.6894 H   0  0  0  0  0  0  0  0  0  0  0  0
    8.8162    1.4903   -1.0976 H   0  0  0  0  0  0  0  0  0  0  0  0
    9.2508    2.9313   -0.1930 H   0  0  0  0  0  0  0  0  0  0  0  0
   -9.1872    2.4500    1.2938 H   0  0  0  0  0  0  0  0  0  0  0  0
  1 13  1  0  0  0  0
  1 15  1  0  0  0  0
  2 27  1  0  0  0  0
  2 53  1  0  0  0  0
  3 27  2  0  0  0  0
  4 10  1  0  0  0  0
  4 11  1  0  0  0  0
  4 12  1  0  0  0  0
  5  6  1  0  0  0  0
  5 13  2  0  0  0  0
  6 15  2  0  0  0  0
  7 24  1  0  0  0  0
  7 28  1  0  0  0  0
  7 29  1  0  0  0  0
  8  9  1  0  0  0  0
  8 10  1  0  0  0  0
  8 13  1  0  0  0  0
  8 30  1  0  0  0  0
  9 11  1  0  0  0  0
  9 31  1  0  0  0  0
  9 32  1  0  0  0  0
 10 33  1  0  0  0  0
 10 34  1  0  0  0  0
 11 35  1  0  0  0  0
 11 36  1  0  0  0  0
 12 14  1  0  0  0  0
 12 37  1  0  0  0  0
 12 38  1  0  0  0  0
 14 16  2  0  0  0  0
 14 17  1  0  0  0  0
 15 18  1  0  0  0  0
 16 19  1  0  0  0  0
 16 39  1  0  0  0  0
 17 20  2  0  0  0  0
 17 40  1  0  0  0  0
 18 22  2  0  0  0  0
 18 23  1  0  0  0  0
 19 21  2  0  0  0  0
 19 41  1  0  0  0  0
 20 21  1  0  0  0  0
 20 42  1  0  0  0  0
 21 27  1  0  0  0  0
 22 25  1  0  0  0  0
 22 43  1  0  0  0  0
 23 26  2  0  0  0  0
 23 44  1  0  0  0  0
 24 25  2  0  0  0  0
 24 26  1  0  0  0  0
 25 45  1  0  0  0  0
 26 46  1  0  0  0  0
 28 47  1  0  0  0  0
 28 48  1  0  0  0  0
 28 49  1  0  0  0  0
 29 50  1  0  0  0  0
 29 51  1  0  0  0  0
 29 52  1  0  0  0  0
M  END
> <PUBCHEM_COMPOUND_CID>
51137521

> <PUBCHEM_CONFORMER_RMSD>
0.8

> <PUBCHEM_CONFORMER_DIVERSEORDER>
1
61
42
50
54
28
16
8
13
15
30
53
22
9
24
47
7
23
21
36
5
25
32
19
63
40
12
10
43
20
58
62
18
2
35
60
37
17
45
56
55
57
39
38
31
3
14
34
33
11
4
6
49
27
52
29
46
59
41
44
48
51
26

> <PUBCHEM_MMFF94_PARTIAL_CHARGES>
37
1 -0.28
10 0.27
11 0.27
12 0.41
13 0.3
14 -0.14
15 0.43
16 -0.15
17 -0.15
18 0.05
19 -0.15
2 -0.65
20 -0.15
21 0.09
22 -0.15
23 -0.15
24 0.1
25 -0.15
26 -0.15
27 0.63
28 0.37
29 0.37
3 -0.57
39 0.15
4 -0.81
40 0.15
41 0.15
42 0.15
43 0.15
44 0.15
45 0.15
46 0.15
5 -0.34
53 0.5
6 -0.34
7 -0.84
8 0.18

> <PUBCHEM_EFFECTIVE_ROTOR_COUNT>
7

> <PUBCHEM_PHARMACOPHORE_FEATURES>
9
1 2 acceptor
1 3 acceptor
1 4 cation
1 7 cation
3 2 3 27 anion
5 1 5 6 13 15 rings
5 4 8 9 10 11 rings
6 14 16 17 19 20 21 rings
6 18 22 23 24 25 26 rings

> <PUBCHEM_HEAVY_ATOM_COUNT>
29

> <PUBCHEM_ATOM_DEF_STEREO_COUNT>
1

> <PUBCHEM_ATOM_UDEF_STEREO_COUNT>
0

> <PUBCHEM_BOND_DEF_STEREO_COUNT>
0

> <PUBCHEM_BOND_UDEF_STEREO_COUNT>
0

> <PUBCHEM_ISOTOPIC_ATOM_COUNT>
0

> <PUBCHEM_COMPONENT_COUNT>
1

> <PUBCHEM_CACTVS_TAUTO_COUNT>
1

> <PUBCHEM_CONFORMER_ID>
030C4BF100000001

> <PUBCHEM_MMFF94_ENERGY>
83.2992

> <PUBCHEM_FEATURE_SELFOVERLAP>
45.729

> <PUBCHEM_SHAPE_FINGERPRINT>
10 15 17748826319247171505
10074138 170 16298677190963715803
10319688 67 16370728145097813081
10411042 1 17833548995555690730
10595046 47 18341888563892071535
10673678 19 18343024380224305334
10838868 160 18341602741907693928
10930396 42 16515399699237935885
11273773 42 18342734143888480869
11374522 155 18187369886519651133
11409948 8 18114754836782178691
11828532 37 11671488058400465756
1200032 147 18261110794826464130
12013929 94 18341050805674485263
12035758 1 16805324396674139575
12522641 24 17604704435433970466
12539765 74 18131074809467217759
12592606 108 8934997071193754529
12821665 9 18340200890937340367
12895837 130 18269555112435719492
13248334 5 18265894654014076018
13540713 4 18263945339982962466
13690498 29 17487604459012714831
14142895 15 18411979183404665351
14394314 77 18412830162297583705
14400156 260 17968370269951301000
14428016 86 18409167710549671926
14565420 104 18113616759725783874
14617042 71 18411423895509928193
14849402 71 18411982477476302361
14919807 6 12607136054675341883
14931854 50 17917722331309494376
15064981 194 18195821879746179444
15183329 4 17203611484350910401
15188451 53 11818992971956909358
15475509 8 13973965394403024995
15519825 34 15430606180791393081
15685185 35 18338800147035087208
1577012 14 18343013402287565742
15840311 113 18410296878214555445
16087824 20 18408886253165196772
16126227 98 18410855498999346791
16989713 51 16701442616156367879
16993089 31 12822721826424085781
16994733 274 18411696561365816409
1768 4 18408045126152223985
17899979 129 18343588421837956942
18393751 57 17894066312018958507
19302320 297 18186800323065413412
19438510 23 18114457955261917898
20157964 124 18410575041919725474
20505436 4 18272364287156889366
20691028 202 18193555791162557804
20721686 124 18131074801874776806
21033648 29 17822015345875230194
21298829 104 18411138065072200788
21304303 64 18334573555670869109
21304304 249 9151174263996501496
21307412 95 13038901166351355077
21521721 280 18336267851992925531
21585481 104 17346331353553550196
21585482 111 18335136432257100932
22224240 67 17749109972521686531
23522609 53 17702674250911783257
23576562 1 16127504109051375713
24771293 8 18187082871208247093
25269216 80 16987988518755317135
2747138 104 17531541884419166325
2838139 119 18334566920062337390
306946 40 17240469288290541541
34797466 226 18129946676667802815
3525247 18 17339545412923028752
3711267 37 18129954394798231193
397830 11 18186814582161378355
4073 2 18334579053487893131
4366758 26 18413114960830200681
437815 12 10952050061074030275
445580 126 18411128131044479762
474113 269 8142089745575177913
5080951 261 16515965973897211875
5265222 85 18202562900191506463
5758199 1 18407478860320344343
5776283 40 18271242849947959640
5911458 16 18130792239642987593
59682541 35 17821734940387022129
59682541 52 17274834519679035334
6327066 14 18339080497225712446
6438161 24 8790881874100475597
6691757 9 15502652762565088891
9962374 69 9006766567378250784
9980921 177 18189034479448112720

> <PUBCHEM_SHAPE_MULTIPOLES>
559.27
27.31
3.42
0.93
14.45
0.09
-0.06
26.85
-0.08
-5.75
-0.38
1.03
-0.13
-1.12

> <PUBCHEM_SHAPE_SELFOVERLAP>
1212.272

> <PUBCHEM_SHAPE_VOLUME>
309.1

> <PUBCHEM_COORDINATE_TYPE>
2
5
10

$$$$
