28961950
  -OEChem-12032416283D

 60 62  0     1  0  0  0  0  0999 V2000
    3.4416    1.5124    0.5602 O   0  0  0  0  0  0  0  0  0  0  0  0
    1.6070    2.9790   -1.2977 O   0  0  0  0  0  0  0  0  0  0  0  0
    5.2549    3.6603    0.6175 O   0  0  0  0  0  0  0  0  0  0  0  0
   -4.0648   -1.5744    1.5840 O   0  0  0  0  0  0  0  0  0  0  0  0
    2.6140   -2.8645    0.0723 O   0  0  0  0  0  0  0  0  0  0  0  0
    4.9267   -4.2393   -0.0205 O   0  0  0  0  0  0  0  0  0  0  0  0
   -0.1571    1.1008   -0.0399 N   0  0  0  0  0  0  0  0  0  0  0  0
   -2.8922    0.2860   -0.1615 N   0  0  0  0  0  0  0  0  0  0  0  0
    3.6040   -0.9685   -0.8370 N   0  0  0  0  0  0  0  0  0  0  0  0
    1.0620    1.5603    0.6020 C   0  0  1  0  0  0  0  0  0  0  0  0
    2.2876    0.6484    0.4611 C   0  0  1  0  0  0  0  0  0  0  0  0
    1.5800    2.9073    0.1220 C   0  0  1  0  0  0  0  0  0  0  0  0
    2.9982    2.8780    0.6793 C   0  0  2  0  0  0  0  0  0  0  0  0
   -0.5701   -0.1971    0.5083 C   0  0  0  0  0  0  0  0  0  0  0  0
   -1.2338    2.0827    0.1369 C   0  0  0  0  0  0  0  0  0  0  0  0
    2.4154   -0.1283   -0.8446 C   0  0  0  0  0  0  0  0  0  0  0  0
   -1.8223   -0.7189   -0.2000 C   0  0  0  0  0  0  0  0  0  0  0  0
   -2.5091    1.6370   -0.5829 C   0  0  0  0  0  0  0  0  0  0  0  0
    3.9925    3.7897   -0.0163 C   0  0  0  0  0  0  0  0  0  0  0  0
   -4.2100   -0.1495   -0.3409 C   0  0  0  0  0  0  0  0  0  0  0  0
    3.5905   -2.2690   -0.3750 C   0  0  0  0  0  0  0  0  0  0  0  0
   -4.7776   -1.0744    0.5354 C   0  0  0  0  0  0  0  0  0  0  0  0
   -4.9568    0.3500   -1.4078 C   0  0  0  0  0  0  0  0  0  0  0  0
    4.9593   -2.9061   -0.4840 C   0  0  0  0  0  0  0  0  0  0  0  0
   -6.0922   -1.4998    0.3447 C   0  0  0  0  0  0  0  0  0  0  0  0
   -6.2715   -0.0755   -1.5985 C   0  0  0  0  0  0  0  0  0  0  0  0
   -6.8393   -1.0004   -0.7222 C   0  0  0  0  0  0  0  0  0  0  0  0
   -4.1405   -0.8615    2.8166 C   0  0  0  0  0  0  0  0  0  0  0  0
    6.2035   -4.8647   -0.1115 C   0  0  0  0  0  0  0  0  0  0  0  0
    0.8798    1.6684    1.6838 H   0  0  0  0  0  0  0  0  0  0  0  0
    2.3308   -0.0516    1.3049 H   0  0  0  0  0  0  0  0  0  0  0  0
    1.0130    3.7610    0.5069 H   0  0  0  0  0  0  0  0  0  0  0  0
    2.9870    3.0941    1.7554 H   0  0  0  0  0  0  0  0  0  0  0  0
   -0.7882   -0.0993    1.5815 H   0  0  0  0  0  0  0  0  0  0  0  0
    0.1974   -0.9696    0.4278 H   0  0  0  0  0  0  0  0  0  0  0  0
   -0.9631    3.0561   -0.2856 H   0  0  0  0  0  0  0  0  0  0  0  0
   -1.4500    2.2364    1.2030 H   0  0  0  0  0  0  0  0  0  0  0  0
    2.5526    0.5560   -1.6886 H   0  0  0  0  0  0  0  0  0  0  0  0
    1.5607   -0.7663   -1.0715 H   0  0  0  0  0  0  0  0  0  0  0  0
   -1.5863   -0.9443   -1.2487 H   0  0  0  0  0  0  0  0  0  0  0  0
   -2.1066   -1.6684    0.2626 H   0  0  0  0  0  0  0  0  0  0  0  0
   -3.3020    2.3570   -0.3451 H   0  0  0  0  0  0  0  0  0  0  0  0
   -2.3433    1.6578   -1.6677 H   0  0  0  0  0  0  0  0  0  0  0  0
    3.6735    4.8348    0.0396 H   0  0  0  0  0  0  0  0  0  0  0  0
    4.1302    3.5042   -1.0641 H   0  0  0  0  0  0  0  0  0  0  0  0
    1.8419    3.8903   -1.5417 H   0  0  0  0  0  0  0  0  0  0  0  0
    4.4719   -0.5659   -1.1789 H   0  0  0  0  0  0  0  0  0  0  0  0
    5.8695    4.2559    0.1560 H   0  0  0  0  0  0  0  0  0  0  0  0
   -4.5446    1.0593   -2.1196 H   0  0  0  0  0  0  0  0  0  0  0  0
   -6.5410   -2.2208    1.0227 H   0  0  0  0  0  0  0  0  0  0  0  0
    5.2705   -2.8846   -1.5350 H   0  0  0  0  0  0  0  0  0  0  0  0
    5.6638   -2.3196    0.1171 H   0  0  0  0  0  0  0  0  0  0  0  0
   -6.8524    0.3104   -2.4312 H   0  0  0  0  0  0  0  0  0  0  0  0
   -7.8625   -1.3324   -0.8713 H   0  0  0  0  0  0  0  0  0  0  0  0
   -3.5084   -1.3736    3.5472 H   0  0  0  0  0  0  0  0  0  0  0  0
   -5.1693   -0.8504    3.1902 H   0  0  0  0  0  0  0  0  0  0  0  0
   -3.7737    0.1627    2.6950 H   0  0  0  0  0  0  0  0  0  0  0  0
    6.1116   -5.8885    0.2605 H   0  0  0  0  0  0  0  0  0  0  0  0
    6.9345   -4.3318    0.5042 H   0  0  0  0  0  0  0  0  0  0  0  0
    6.5388   -4.8985   -1.1526 H   0  0  0  0  0  0  0  0  0  0  0  0
  1 11  1  0  0  0  0
  1 13  1  0  0  0  0
  2 12  1  0  0  0  0
  2 46  1  0  0  0  0
  3 19  1  0  0  0  0
  3 48  1  0  0  0  0
  4 22  1  0  0  0  0
  4 28  1  0  0  0  0
  5 21  2  0  0  0  0
  6 24  1  0  0  0  0
  6 29  1  0  0  0  0
  7 10  1  0  0  0  0
  7 14  1  0  0  0  0
  7 15  1  0  0  0  0
  8 17  1  0  0  0  0
  8 18  1  0  0  0  0
  8 20  1  0  0  0  0
  9 16  1  0  0  0  0
  9 21  1  0  0  0  0
  9 47  1  0  0  0  0
 10 11  1  0  0  0  0
 10 12  1  0  0  0  0
 10 30  1  0  0  0  0
 11 16  1  0  0  0  0
 11 31  1  0  0  0  0
 12 13  1  0  0  0  0
 12 32  1  0  0  0  0
 13 19  1  0  0  0  0
 13 33  1  0  0  0  0
 14 17  1  0  0  0  0
 14 34  1  0  0  0  0
 14 35  1  0  0  0  0
 15 18  1  0  0  0  0
 15 36  1  0  0  0  0
 15 37  1  0  0  0  0
 16 38  1  0  0  0  0
 16 39  1  0  0  0  0
 17 40  1  0  0  0  0
 17 41  1  0  0  0  0
 18 42  1  0  0  0  0
 18 43  1  0  0  0  0
 19 44  1  0  0  0  0
 19 45  1  0  0  0  0
 20 22  1  0  0  0  0
 20 23  2  0  0  0  0
 21 24  1  0  0  0  0
 22 25  2  0  0  0  0
 23 26  1  0  0  0  0
 23 49  1  0  0  0  0
 24 51  1  0  0  0  0
 24 52  1  0  0  0  0
 25 27  1  0  0  0  0
 25 50  1  0  0  0  0
 26 27  2  0  0  0  0
 26 53  1  0  0  0  0
 27 54  1  0  0  0  0
 28 55  1  0  0  0  0
 28 56  1  0  0  0  0
 28 57  1  0  0  0  0
 29 58  1  0  0  0  0
 29 59  1  0  0  0  0
 29 60  1  0  0  0  0
M  END
> <PUBCHEM_COMPOUND_CID>
28961950

> <PUBCHEM_CONFORMER_RMSD>
1

> <PUBCHEM_CONFORMER_DIVERSEORDER>
1
27
11
33
38
17
28
35
6
24
18
26
34
32
36
23
37
12
31
13
14
2
25
19
4
3
30
21
20
15
16
22
9
5
29
8
10
7

> <PUBCHEM_MMFF94_PARTIAL_CHARGES>
36
1 -0.56
10 0.27
11 0.28
12 0.28
13 0.28
14 0.27
15 0.27
16 0.3
17 0.37
18 0.37
19 0.28
2 -0.68
20 0.1
21 0.57
22 0.08
23 -0.15
24 0.34
25 -0.15
26 -0.15
27 -0.15
28 0.28
29 0.28
3 -0.68
4 -0.36
46 0.4
47 0.37
48 0.4
49 0.15
5 -0.57
50 0.15
53 0.15
54 0.15
6 -0.56
7 -0.81
8 -0.84
9 -0.73

> <PUBCHEM_EFFECTIVE_ROTOR_COUNT>
11.2

> <PUBCHEM_PHARMACOPHORE_FEATURES>
14
1 1 acceptor
1 2 acceptor
1 2 donor
1 3 acceptor
1 3 donor
1 4 acceptor
1 5 acceptor
1 6 acceptor
1 7 cation
1 8 cation
1 9 donor
5 1 10 11 12 13 rings
6 20 22 23 25 26 27 rings
6 7 8 14 15 17 18 rings

> <PUBCHEM_HEAVY_ATOM_COUNT>
29

> <PUBCHEM_ATOM_DEF_STEREO_COUNT>
4

> <PUBCHEM_ATOM_UDEF_STEREO_COUNT>
0

> <PUBCHEM_BOND_DEF_STEREO_COUNT>
0

> <PUBCHEM_BOND_UDEF_STEREO_COUNT>
0

> <PUBCHEM_ISOTOPIC_ATOM_COUNT>
0

> <PUBCHEM_COMPONENT_COUNT>
1

> <PUBCHEM_CACTVS_TAUTO_COUNT>
2

> <PUBCHEM_CONFORMER_ID>
01B9EC9E00000001

> <PUBCHEM_MMFF94_ENERGY>
97.2093

> <PUBCHEM_FEATURE_SELFOVERLAP>
71.063

> <PUBCHEM_SHAPE_FINGERPRINT>
10050765 1 18340767044335393185
10319688 140 18411981369368828638
10411042 1 18268427924382085622
11204353 107 18267030629761084614
11719270 70 18339353193189361752
11963148 33 18055061323354529727
12107183 9 18056490443815290409
12236239 1 16988012716495936913
12342043 65 17533814656263312179
12730499 353 18267869556515086896
12760667 363 18267026063804095155
13533116 47 18201998867599630425
13540713 5 18130240258777876600
1361 87 17895772728554290363
13631057 29 18048880694107432046
13955234 65 18200307848680980368
13968360 50 18267862955889097580
14028597 1 17560814264000506472
14866123 147 17980202989753478009
14910302 57 17749100094022988055
15927050 60 18126000705381979614
16990366 60 18262510387077277274
16991971 28 18199757960340616294
17492 89 18412540985837044285
19319366 153 18057038223722805620
20645477 70 18410004472825767561
20775438 99 18265038318385076299
21033650 10 16515964736266005549
21130935 74 18339928225376481627
21279426 13 18261381219021321965
21682296 61 18340768139910405719
21796203 349 18126316106410882370
22224240 67 17985258819159572832
22956985 138 18338791201514437008
23559900 14 18040440992521714847
23569914 152 17617907290135953423
239999 70 17968651739081572440
249999 5 18342170111962016256
32027 91 18408887308724740899
3421961 26 18412544306089116816
345986 75 17632583729703408921
34797466 226 17240770635605949165
46194498 28 17894628175614621756
5104073 3 17989208110101422001
5309563 4 18268429019203354070
59755656 215 18339081604942646836
6669772 16 18339076115868629006
7970288 3 18196369226021202262

> <PUBCHEM_SHAPE_MULTIPOLES>
546.65
16.11
5.25
1.35
10.28
1.93
0.65
13.02
-2.05
-15.79
0.06
2.26
0.18
1.84

> <PUBCHEM_SHAPE_SELFOVERLAP>
1132.674

> <PUBCHEM_SHAPE_VOLUME>
311.5

> <PUBCHEM_COORDINATE_TYPE>
2
5
10

$$$$
