28962466
  -OEChem-12032416203D

 69 71  0     1  0  0  0  0  0999 V2000
   -1.2462   -2.1334   -1.7178 O   0  0  0  0  0  0  0  0  0  0  0  0
    3.5335   -2.7254    0.6005 O   0  0  0  0  0  0  0  0  0  0  0  0
   -6.4025    2.3743   -0.8911 O   0  0  0  0  0  0  0  0  0  0  0  0
    3.4822    1.8207   -1.9093 O   0  0  0  0  0  0  0  0  0  0  0  0
   -5.7574    0.3236    0.0011 N   0  0  0  0  0  0  0  0  0  0  0  0
    3.1598   -1.2999   -1.1906 N   0  0  0  0  0  0  0  0  0  0  0  0
   -1.6621    0.1446    1.3176 C   0  0  1  0  0  0  0  0  0  0  0  0
   -1.9893   -0.4936   -0.0733 C   0  0  2  0  0  0  0  0  0  0  0  0
   -3.5307   -0.7601   -0.2174 C   0  0  1  0  0  0  0  0  0  0  0  0
   -1.0699   -1.7148   -0.3636 C   0  0  2  0  0  0  0  0  0  0  0  0
   -0.1573    0.4976    1.3822 C   0  0  0  0  0  0  0  0  0  0  0  0
   -2.4608    1.4597    1.4693 C   0  0  0  0  0  0  0  0  0  0  0  0
    0.4311   -1.3822   -0.1957 C   0  0  1  0  0  0  0  0  0  0  0  0
   -4.3282    0.5546    0.0115 C   0  0  2  0  0  0  0  0  0  0  0  0
    0.7461   -0.7039    1.1374 C   0  0  0  0  0  0  0  0  0  0  0  0
   -3.9626    1.2683    1.3127 C   0  0  0  0  0  0  0  0  0  0  0  0
   -2.0032   -0.7987    2.4990 C   0  0  0  0  0  0  0  0  0  0  0  0
    1.3114   -2.6276   -0.3575 C   0  0  2  0  0  0  0  0  0  0  0  0
   -3.9273   -1.3621   -1.5761 C   0  0  0  0  0  0  0  0  0  0  0  0
    0.9307   -3.6778    0.6802 C   0  0  0  0  0  0  0  0  0  0  0  0
    2.7831   -2.2422   -0.2447 C   0  0  0  0  0  0  0  0  0  0  0  0
   -6.6698    1.2590   -0.4515 C   0  0  0  0  0  0  0  0  0  0  0  0
   -8.0858    0.7536   -0.3756 C   0  0  0  0  0  0  0  0  0  0  0  0
    4.5037   -0.7779   -1.2813 C   0  0  0  0  0  0  0  0  0  0  0  0
    4.7027    0.4183   -0.3960 C   0  0  0  0  0  0  0  0  0  0  0  0
    4.1825    1.6626   -0.7511 C   0  0  0  0  0  0  0  0  0  0  0  0
    5.4178    0.2749    0.7931 C   0  0  0  0  0  0  0  0  0  0  0  0
    4.3771    2.7638    0.0826 C   0  0  0  0  0  0  0  0  0  0  0  0
    5.6125    1.3761    1.6270 C   0  0  0  0  0  0  0  0  0  0  0  0
    5.0921    2.6205    1.2718 C   0  0  0  0  0  0  0  0  0  0  0  0
    2.9867    3.1275   -2.1932 C   0  0  0  0  0  0  0  0  0  0  0  0
   -1.7495    0.2564   -0.8442 H   0  0  0  0  0  0  0  0  0  0  0  0
   -3.8363   -1.4916    0.5414 H   0  0  0  0  0  0  0  0  0  0  0  0
   -1.3956   -2.5367    0.2761 H   0  0  0  0  0  0  0  0  0  0  0  0
    0.0883    0.9382    2.3570 H   0  0  0  0  0  0  0  0  0  0  0  0
    0.0749    1.2664    0.6326 H   0  0  0  0  0  0  0  0  0  0  0  0
   -2.1239    2.1847    0.7161 H   0  0  0  0  0  0  0  0  0  0  0  0
   -2.2584    1.9169    2.4463 H   0  0  0  0  0  0  0  0  0  0  0  0
    0.6792   -0.6652   -0.9898 H   0  0  0  0  0  0  0  0  0  0  0  0
   -4.0989    1.2382   -0.8178 H   0  0  0  0  0  0  0  0  0  0  0  0
    1.7804   -0.3416    1.1558 H   0  0  0  0  0  0  0  0  0  0  0  0
    0.6509   -1.3813    1.9886 H   0  0  0  0  0  0  0  0  0  0  0  0
   -4.3638    0.7172    2.1721 H   0  0  0  0  0  0  0  0  0  0  0  0
   -4.4492    2.2517    1.3461 H   0  0  0  0  0  0  0  0  0  0  0  0
   -3.0696   -1.0291    2.5638 H   0  0  0  0  0  0  0  0  0  0  0  0
   -1.7180   -0.3396    3.4529 H   0  0  0  0  0  0  0  0  0  0  0  0
   -1.4831   -1.7583    2.4326 H   0  0  0  0  0  0  0  0  0  0  0  0
    1.1728   -3.0606   -1.3565 H   0  0  0  0  0  0  0  0  0  0  0  0
   -3.5140   -0.7786   -2.4052 H   0  0  0  0  0  0  0  0  0  0  0  0
   -5.0137   -1.3985   -1.7063 H   0  0  0  0  0  0  0  0  0  0  0  0
   -3.5890   -2.3985   -1.6626 H   0  0  0  0  0  0  0  0  0  0  0  0
   -6.1015   -0.5457    0.3994 H   0  0  0  0  0  0  0  0  0  0  0  0
   -1.0126   -1.3885   -2.2976 H   0  0  0  0  0  0  0  0  0  0  0  0
    1.0615   -3.3541    1.7153 H   0  0  0  0  0  0  0  0  0  0  0  0
    1.5867   -4.5506    0.5633 H   0  0  0  0  0  0  0  0  0  0  0  0
   -0.0838   -4.0615    0.5515 H   0  0  0  0  0  0  0  0  0  0  0  0
    2.4931   -0.9888   -1.8897 H   0  0  0  0  0  0  0  0  0  0  0  0
   -8.3130    0.4271    0.6433 H   0  0  0  0  0  0  0  0  0  0  0  0
   -8.7786    1.5532   -0.6518 H   0  0  0  0  0  0  0  0  0  0  0  0
   -8.2139   -0.0854   -1.0652 H   0  0  0  0  0  0  0  0  0  0  0  0
    4.6912   -0.5128   -2.3280 H   0  0  0  0  0  0  0  0  0  0  0  0
    5.2132   -1.5745   -1.0278 H   0  0  0  0  0  0  0  0  0  0  0  0
    5.8281   -0.6883    1.0844 H   0  0  0  0  0  0  0  0  0  0  0  0
    4.0029    3.7598   -0.1269 H   0  0  0  0  0  0  0  0  0  0  0  0
    6.1687    1.2643    2.5531 H   0  0  0  0  0  0  0  0  0  0  0  0
    5.2441    3.4771    1.9221 H   0  0  0  0  0  0  0  0  0  0  0  0
    2.4566    3.0695   -3.1496 H   0  0  0  0  0  0  0  0  0  0  0  0
    3.8005    3.8488   -2.3251 H   0  0  0  0  0  0  0  0  0  0  0  0
    2.2559    3.4534   -1.4452 H   0  0  0  0  0  0  0  0  0  0  0  0
  1 10  1  0  0  0  0
  1 53  1  0  0  0  0
  2 21  2  0  0  0  0
  3 22  2  0  0  0  0
  4 26  1  0  0  0  0
  4 31  1  0  0  0  0
  5 14  1  0  0  0  0
  5 22  1  0  0  0  0
  5 52  1  0  0  0  0
  6 21  1  0  0  0  0
  6 24  1  0  0  0  0
  6 57  1  0  0  0  0
  7  8  1  0  0  0  0
  7 11  1  0  0  0  0
  7 12  1  0  0  0  0
  7 17  1  0  0  0  0
  8  9  1  0  0  0  0
  8 10  1  0  0  0  0
  8 32  1  0  0  0  0
  9 14  1  0  0  0  0
  9 19  1  0  0  0  0
  9 33  1  0  0  0  0
 10 13  1  0  0  0  0
 10 34  1  0  0  0  0
 11 15  1  0  0  0  0
 11 35  1  0  0  0  0
 11 36  1  0  0  0  0
 12 16  1  0  0  0  0
 12 37  1  0  0  0  0
 12 38  1  0  0  0  0
 13 15  1  0  0  0  0
 13 18  1  0  0  0  0
 13 39  1  0  0  0  0
 14 16  1  0  0  0  0
 14 40  1  0  0  0  0
 15 41  1  0  0  0  0
 15 42  1  0  0  0  0
 16 43  1  0  0  0  0
 16 44  1  0  0  0  0
 17 45  1  0  0  0  0
 17 46  1  0  0  0  0
 17 47  1  0  0  0  0
 18 20  1  0  0  0  0
 18 21  1  0  0  0  0
 18 48  1  0  0  0  0
 19 49  1  0  0  0  0
 19 50  1  0  0  0  0
 19 51  1  0  0  0  0
 20 54  1  0  0  0  0
 20 55  1  0  0  0  0
 20 56  1  0  0  0  0
 22 23  1  0  0  0  0
 23 58  1  0  0  0  0
 23 59  1  0  0  0  0
 23 60  1  0  0  0  0
 24 25  1  0  0  0  0
 24 61  1  0  0  0  0
 24 62  1  0  0  0  0
 25 26  1  0  0  0  0
 25 27  2  0  0  0  0
 26 28  2  0  0  0  0
 27 29  1  0  0  0  0
 27 63  1  0  0  0  0
 28 30  1  0  0  0  0
 28 64  1  0  0  0  0
 29 30  2  0  0  0  0
 29 65  1  0  0  0  0
 30 66  1  0  0  0  0
 31 67  1  0  0  0  0
 31 68  1  0  0  0  0
 31 69  1  0  0  0  0
M  END
> <PUBCHEM_COMPOUND_CID>
28962466

> <PUBCHEM_CONFORMER_RMSD>
1.2

> <PUBCHEM_CONFORMER_DIVERSEORDER>
1
36
88
97
101
58
51
62
49
38
71
14
87
82
44
3
15
76
50
105
80
83
104
29
72
41
21
31
65
68
85
7
16
77
95
6
43
22
94
60
5
12
54
92
37
47
53
28
70
93
26
57
35
63
90
9
30
48
39
98
4
89
78
84
55
96
73
86
74
91
23
19
45
52
27
40
56
79
33
13
75
100
2
18
25
46
102
99
10
34
103
81
59
64
42
69
32
61
66
24
20
17
67
11
8

> <PUBCHEM_MMFF94_PARTIAL_CHARGES>
27
1 -0.68
10 0.28
14 0.3
18 0.06
2 -0.57
21 0.57
22 0.57
23 0.06
24 0.44
25 -0.14
26 0.08
27 -0.15
28 -0.15
29 -0.15
3 -0.57
30 -0.15
31 0.28
4 -0.36
5 -0.73
52 0.37
53 0.4
57 0.37
6 -0.73
63 0.15
64 0.15
65 0.15
66 0.15

> <PUBCHEM_EFFECTIVE_ROTOR_COUNT>
9.6

> <PUBCHEM_PHARMACOPHORE_FEATURES>
11
1 1 acceptor
1 1 donor
1 2 acceptor
1 20 hydrophobe
1 3 acceptor
1 4 acceptor
1 5 donor
1 6 donor
6 25 26 27 28 29 30 rings
6 7 8 10 11 13 15 rings
6 7 8 9 12 14 16 rings

> <PUBCHEM_HEAVY_ATOM_COUNT>
31

> <PUBCHEM_ATOM_DEF_STEREO_COUNT>
7

> <PUBCHEM_ATOM_UDEF_STEREO_COUNT>
0

> <PUBCHEM_BOND_DEF_STEREO_COUNT>
0

> <PUBCHEM_BOND_UDEF_STEREO_COUNT>
0

> <PUBCHEM_ISOTOPIC_ATOM_COUNT>
0

> <PUBCHEM_COMPONENT_COUNT>
1

> <PUBCHEM_CACTVS_TAUTO_COUNT>
4

> <PUBCHEM_CONFORMER_ID>
01B9EEA200000001

> <PUBCHEM_MMFF94_ENERGY>
95.3521

> <PUBCHEM_FEATURE_SELFOVERLAP>
55.836

> <PUBCHEM_SHAPE_FINGERPRINT>
10673678 19 18343864394766070727
10692045 39 15140951812548784465
11135609 187 18128812126201096920
11211813 74 18341326696655848873
117089 54 7996876205387343376
12422481 6 17822005410914189948
12633257 1 16443349814238646358
12788726 201 17346319242119822289
13150687 139 17775291564929775646
13583140 156 17168707578301282754
13617811 41 18273205409626325393
14068700 675 17629769981428832634
14117953 113 18409451384613435940
14790565 3 17487356858310458201
14931854 50 17774733047266903000
15082195 135 17983289331835504385
15183329 4 17989492926657971913
19319366 153 18343014459272306015
20511986 3 18130495405403894516
20554085 129 16371005179490036289
20715895 44 18410853287365417872
21033648 29 17022913340826378294
21049683 118 18114732819983942642
21298829 104 18410570725630677964
23522609 53 17202503142861166273
23559900 14 17968675812684607074
23569914 2 17318403754187990965
2838139 119 18040989649151360629
3117164 225 11891322149688453343
34797466 226 16271929319764829233
44317340 157 18342744013644478191
474 4 18335430075413470634
5372103 7 14978808066321390378
56633871 153 11891323262069055161
57724786 102 17313671580716628076
6034566 193 17827659250376170700
6036956 94 17188961857800878096
9981440 41 18127969918355252482

> <PUBCHEM_SHAPE_MULTIPOLES>
604.53
16.15
3.55
1.87
17.21
0.85
0.08
-12.44
-2.15
-3.56
-0.64
-0.66
-0.59
-0.19

> <PUBCHEM_SHAPE_SELFOVERLAP>
1255.948

> <PUBCHEM_SHAPE_VOLUME>
341.4

> <PUBCHEM_COORDINATE_TYPE>
2
5
10

$$$$
