86769017
  -OEChem-12032416323D

 52 55  0     1  0  0  0  0  0999 V2000
   -6.4890    2.0089    0.1639 O   0  0  0  0  0  0  0  0  0  0  0  0
    1.1334   -3.0476   -1.0846 O   0  0  0  0  0  0  0  0  0  0  0  0
    5.5536    2.4919   -1.1384 O   0  0  0  0  0  0  0  0  0  0  0  0
   -3.0716   -0.4253    0.0123 N   0  0  1  0  0  0  0  0  0  0  0  0
   -0.7151   -1.9538   -0.1331 N   0  0  0  0  0  0  0  0  0  0  0  0
    1.2824   -1.7360    0.8703 N   0  0  0  0  0  0  0  0  0  0  0  0
   -0.9956   -1.2093    1.0767 C   0  0  2  0  0  0  0  0  0  0  0  0
   -1.8744    0.0015    0.7645 C   0  0  0  0  0  0  0  0  0  0  0  0
   -3.9483    0.7162   -0.2387 C   0  0  0  0  0  0  0  0  0  0  0  0
   -2.6915   -1.0716   -1.2602 C   0  0  0  0  0  0  0  0  0  0  0  0
    0.3898   -0.8729    1.6248 C   0  0  0  0  0  0  0  0  0  0  0  0
   -1.8047   -2.2965   -1.0232 C   0  0  0  0  0  0  0  0  0  0  0  0
   -4.3071    1.4330    1.0666 C   0  0  0  0  0  0  0  0  0  0  0  0
   -5.2233    0.2611   -0.9544 C   0  0  0  0  0  0  0  0  0  0  0  0
    0.6291   -2.3394   -0.2231 C   0  0  0  0  0  0  0  0  0  0  0  0
   -5.3260    2.5362    0.8024 C   0  0  0  0  0  0  0  0  0  0  0  0
   -6.1915    1.4292   -1.1065 C   0  0  0  0  0  0  0  0  0  0  0  0
    2.6980   -1.8123    1.1563 C   0  0  0  0  0  0  0  0  0  0  0  0
    3.4568   -0.6694    0.5464 C   0  0  0  0  0  0  0  0  0  0  0  0
    3.7140   -0.6547   -0.8245 C   0  0  0  0  0  0  0  0  0  0  0  0
    3.9044    0.3784    1.3512 C   0  0  0  0  0  0  0  0  0  0  0  0
    4.4188    0.4073   -1.3906 C   0  0  0  0  0  0  0  0  0  0  0  0
    4.6094    1.4405    0.7851 C   0  0  0  0  0  0  0  0  0  0  0  0
    4.8666    1.4550   -0.5857 C   0  0  0  0  0  0  0  0  0  0  0  0
    5.9819    3.5296   -0.2575 C   0  0  0  0  0  0  0  0  0  0  0  0
   -1.5139   -1.8944    1.7607 H   0  0  0  0  0  0  0  0  0  0  0  0
   -2.1234    0.4307    1.7387 H   0  0  0  0  0  0  0  0  0  0  0  0
   -1.3113    0.7520    0.1937 H   0  0  0  0  0  0  0  0  0  0  0  0
   -3.4349    1.4417   -0.8873 H   0  0  0  0  0  0  0  0  0  0  0  0
   -2.1635   -0.3592   -1.9080 H   0  0  0  0  0  0  0  0  0  0  0  0
   -3.5570   -1.4488   -1.8106 H   0  0  0  0  0  0  0  0  0  0  0  0
    0.4718   -1.0909    2.6939 H   0  0  0  0  0  0  0  0  0  0  0  0
    0.6739    0.1681    1.4407 H   0  0  0  0  0  0  0  0  0  0  0  0
   -2.3755   -3.0999   -0.5432 H   0  0  0  0  0  0  0  0  0  0  0  0
   -1.4009   -2.6829   -1.9644 H   0  0  0  0  0  0  0  0  0  0  0  0
   -3.4444    1.9159    1.5350 H   0  0  0  0  0  0  0  0  0  0  0  0
   -4.7329    0.7161    1.7805 H   0  0  0  0  0  0  0  0  0  0  0  0
   -5.7107   -0.5335   -0.3746 H   0  0  0  0  0  0  0  0  0  0  0  0
   -5.0333   -0.1189   -1.9619 H   0  0  0  0  0  0  0  0  0  0  0  0
   -5.6417    2.9863    1.7491 H   0  0  0  0  0  0  0  0  0  0  0  0
   -4.9002    3.3342    0.1826 H   0  0  0  0  0  0  0  0  0  0  0  0
   -5.7871    2.2000   -1.7731 H   0  0  0  0  0  0  0  0  0  0  0  0
   -7.1334    1.0783   -1.5403 H   0  0  0  0  0  0  0  0  0  0  0  0
    2.8325   -1.8560    2.2431 H   0  0  0  0  0  0  0  0  0  0  0  0
    3.0873   -2.7533    0.7487 H   0  0  0  0  0  0  0  0  0  0  0  0
    3.3778   -1.4659   -1.4639 H   0  0  0  0  0  0  0  0  0  0  0  0
    3.7081    0.3795    2.4201 H   0  0  0  0  0  0  0  0  0  0  0  0
    4.6172    0.4127   -2.4589 H   0  0  0  0  0  0  0  0  0  0  0  0
    4.9271    2.2213    1.4676 H   0  0  0  0  0  0  0  0  0  0  0  0
    6.5120    4.2706   -0.8648 H   0  0  0  0  0  0  0  0  0  0  0  0
    6.6944    3.1574    0.4864 H   0  0  0  0  0  0  0  0  0  0  0  0
    5.1311    4.0432    0.2029 H   0  0  0  0  0  0  0  0  0  0  0  0
  1 16  1  0  0  0  0
  1 17  1  0  0  0  0
  2 15  2  0  0  0  0
  3 24  1  0  0  0  0
  3 25  1  0  0  0  0
  4  8  1  0  0  0  0
  4  9  1  0  0  0  0
  4 10  1  0  0  0  0
  5  7  1  0  0  0  0
  5 12  1  0  0  0  0
  5 15  1  0  0  0  0
  6 11  1  0  0  0  0
  6 15  1  0  0  0  0
  6 18  1  0  0  0  0
  7  8  1  0  0  0  0
  7 11  1  0  0  0  0
  7 26  1  0  0  0  0
  8 27  1  0  0  0  0
  8 28  1  0  0  0  0
  9 13  1  0  0  0  0
  9 14  1  0  0  0  0
  9 29  1  0  0  0  0
 10 12  1  0  0  0  0
 10 30  1  0  0  0  0
 10 31  1  0  0  0  0
 11 32  1  0  0  0  0
 11 33  1  0  0  0  0
 12 34  1  0  0  0  0
 12 35  1  0  0  0  0
 13 16  1  0  0  0  0
 13 36  1  0  0  0  0
 13 37  1  0  0  0  0
 14 17  1  0  0  0  0
 14 38  1  0  0  0  0
 14 39  1  0  0  0  0
 16 40  1  0  0  0  0
 16 41  1  0  0  0  0
 17 42  1  0  0  0  0
 17 43  1  0  0  0  0
 18 19  1  0  0  0  0
 18 44  1  0  0  0  0
 18 45  1  0  0  0  0
 19 20  2  0  0  0  0
 19 21  1  0  0  0  0
 20 22  1  0  0  0  0
 20 46  1  0  0  0  0
 21 23  2  0  0  0  0
 21 47  1  0  0  0  0
 22 24  2  0  0  0  0
 22 48  1  0  0  0  0
 23 24  1  0  0  0  0
 23 49  1  0  0  0  0
 25 50  1  0  0  0  0
 25 51  1  0  0  0  0
 25 52  1  0  0  0  0
M  END
> <PUBCHEM_COMPOUND_CID>
86769017

> <PUBCHEM_CONFORMER_RMSD>
0.8

> <PUBCHEM_CONFORMER_DIVERSEORDER>
1
25
14
32
8
21
4
13
36
38
18
9
37
28
15
23
27
24
10
22
5
39
26
2
30
16
6
33
19
3
31
12
17
35
11
29
7
20
34

> <PUBCHEM_MMFF94_PARTIAL_CHARGES>
27
1 -0.56
10 0.27
11 0.3
12 0.3
15 0.69
16 0.28
17 0.28
18 0.44
19 -0.14
2 -0.57
20 -0.15
21 -0.15
22 -0.15
23 -0.15
24 0.08
25 0.28
3 -0.36
4 -0.81
46 0.15
47 0.15
48 0.15
49 0.15
5 -0.66
6 -0.66
7 0.3
8 0.27
9 0.27

> <PUBCHEM_EFFECTIVE_ROTOR_COUNT>
6.4

> <PUBCHEM_PHARMACOPHORE_FEATURES>
8
1 1 acceptor
1 2 acceptor
1 3 acceptor
1 4 cation
5 5 6 7 11 15 rings
6 1 9 13 14 16 17 rings
6 19 20 21 22 23 24 rings
6 4 5 7 8 10 12 rings

> <PUBCHEM_HEAVY_ATOM_COUNT>
25

> <PUBCHEM_ATOM_DEF_STEREO_COUNT>
1

> <PUBCHEM_ATOM_UDEF_STEREO_COUNT>
0

> <PUBCHEM_BOND_DEF_STEREO_COUNT>
0

> <PUBCHEM_BOND_UDEF_STEREO_COUNT>
0

> <PUBCHEM_ISOTOPIC_ATOM_COUNT>
0

> <PUBCHEM_COMPONENT_COUNT>
1

> <PUBCHEM_CACTVS_TAUTO_COUNT>
1

> <PUBCHEM_CONFORMER_ID>
052BFD7900000001

> <PUBCHEM_MMFF94_ENERGY>
67.3422

> <PUBCHEM_FEATURE_SELFOVERLAP>
40.693

> <PUBCHEM_SHAPE_FINGERPRINT>
10042902 136 9871209249493116648
10319926 262 13190884377714497202
10498660 4 18201440324240482914
10622 236 12174806995585664524
10670039 82 18129666283489970584
11720765 8 17702955708830184126
11796584 16 11959431380913244901
12633257 1 15357982329986376942
12839892 36 12468355722259887257
12895836 83 18270962448337583902
12895837 130 18120942965032144084
13103583 49 11314570005782279686
13782708 43 10663517311462927217
13885169 86 18335709372594206285
13955234 65 17532646828527042779
14251764 30 9007063447981101116
14251764 38 17899971638896035693
14251764 75 18409453613100192272
14528608 73 18272927198634055945
14537116 161 17131829825209688673
14774955 27 18408039589633092807
14790565 3 18341613647193330369
14840074 17 18333453123368417589
14848178 5 10159696867619235984
15142526 21 18113900476453493755
15163728 17 18341621433768493654
15183329 4 15913047586677239073
15342168 16 18409727331465965903
15475509 35 8862641504813833749
15475509 8 15123797262829867363
15510800 12 12103842380361288020
17349148 13 9871463261931699241
17857418 61 8574416635295576329
19438510 23 18188207714817151608
1979834 28 13912607104516420097
20567600 234 16878234103965708447
20645477 70 13254786954360591258
22061861 79 13686288068141339705
22122407 14 18042409015499396633
22849339 104 16844997022751814351
23522609 53 17488476178913089113
23559900 14 17773875303184679086
245318 6 17969518154233905901
249057 25 18190999340084963538
270888 7 18261956353396229924
2748736 6 18335977670737918260
2838139 119 18261386719903704684
3004659 81 17630319744851908582
3472631 163 18412263951872108508
3886686 26 11317629911802736460
397830 11 17822024094760009875
4258327 124 18200595779869554921
465052 167 9943520842815816976
474 4 18261391122224337451
5104073 3 17458621254978135554
543368 44 18410572894989776997
56616090 13 18259704523190453538
56633871 153 10737280268487181096
57724786 102 17822008753231831820
59682541 52 16271928160197454349
6034566 193 18341905112168577833
6036956 94 17108196131560363620
633830 44 18334010592922554346
6712543 237 14779257631391260153
7808743 9 18411978095939136738
7970288 3 9655581798733749900
960060 61 14692566632887838538

> <PUBCHEM_SHAPE_MULTIPOLES>
481.94
15.71
3.4
1.47
5.78
0.85
-0.06
18.23
3.14
-2.12
0.47
-0.29
-0.16
-1.57

> <PUBCHEM_SHAPE_SELFOVERLAP>
1020.375

> <PUBCHEM_SHAPE_VOLUME>
270.6

> <PUBCHEM_COORDINATE_TYPE>
2
5
10

$$$$
