11883345
  -OEChem-12032416123D

 51 54  0     1  0  0  0  0  0999 V2000
    3.9245   -1.9387    0.9915 S   0  0  0  0  0  0  0  0  0  0  0  0
   -0.5238   -1.6828   -0.7560 O   0  0  0  0  0  0  0  0  0  0  0  0
    1.4185    0.2294   -2.1612 O   0  0  0  0  0  0  0  0  0  0  0  0
   -2.1008    0.4648   -1.5353 O   0  0  0  0  0  0  0  0  0  0  0  0
    4.7216   -2.6841    0.0360 O   0  0  0  0  0  0  0  0  0  0  0  0
    4.0635   -2.1920    2.4128 O   0  0  0  0  0  0  0  0  0  0  0  0
   -2.5175    0.7344    0.6970 O   0  0  0  0  0  0  0  0  0  0  0  0
    2.2830   -2.0568    0.5722 N   0  0  0  0  0  0  0  0  0  0  0  0
   -4.2343    0.2782   -0.8278 N   0  0  0  0  0  0  0  0  0  0  0  0
    1.3741   -0.2620   -0.8052 C   0  0  1  0  0  0  0  0  0  0  0  0
   -0.0885   -0.3549   -0.4194 C   0  0  1  0  0  0  0  0  0  0  0  0
    1.8534   -1.6940   -0.7563 C   0  0  2  0  0  0  0  0  0  0  0  0
   -0.7272    0.6854   -1.3080 C   0  0  1  0  0  0  0  0  0  0  0  0
    0.6095   -2.4642   -1.1645 C   0  0  0  0  0  0  0  0  0  0  0  0
    0.0863    0.5642   -2.5768 C   0  0  0  0  0  0  0  0  0  0  0  0
    4.2420   -0.2178    0.7413 C   0  0  0  0  0  0  0  0  0  0  0  0
   -2.9309    0.5126   -0.4345 C   0  0  0  0  0  0  0  0  0  0  0  0
    4.0543    0.6630    1.7925 C   0  0  0  0  0  0  0  0  0  0  0  0
    4.6721    0.2171   -0.5003 C   0  0  0  0  0  0  0  0  0  0  0  0
    4.3042    2.0211    1.5957 C   0  0  0  0  0  0  0  0  0  0  0  0
    4.9220    1.5753   -0.6970 C   0  0  0  0  0  0  0  0  0  0  0  0
    4.7381    2.4772    0.3511 C   0  0  0  0  0  0  0  0  0  0  0  0
   -5.3934    0.2385   -0.0198 C   0  0  0  0  0  0  0  0  0  0  0  0
    5.0060    3.9293    0.1406 C   0  0  0  0  0  0  0  0  0  0  0  0
   -6.6228   -0.0142   -0.6079 C   0  0  0  0  0  0  0  0  0  0  0  0
   -5.2784    0.4523    1.3446 C   0  0  0  0  0  0  0  0  0  0  0  0
   -7.7667   -0.0538    0.1892 C   0  0  0  0  0  0  0  0  0  0  0  0
   -6.4224    0.4126    2.1417 C   0  0  0  0  0  0  0  0  0  0  0  0
   -7.6665    0.1596    1.5639 C   0  0  0  0  0  0  0  0  0  0  0  0
    1.8963    0.4600   -0.1791 H   0  0  0  0  0  0  0  0  0  0  0  0
   -0.2527   -0.2120    0.6519 H   0  0  0  0  0  0  0  0  0  0  0  0
    2.6466   -1.9038   -1.4815 H   0  0  0  0  0  0  0  0  0  0  0  0
   -0.5712    1.6880   -0.8874 H   0  0  0  0  0  0  0  0  0  0  0  0
    0.5414   -3.4600   -0.7159 H   0  0  0  0  0  0  0  0  0  0  0  0
    0.5528   -2.5718   -2.2534 H   0  0  0  0  0  0  0  0  0  0  0  0
    0.1043    1.4963   -3.1497 H   0  0  0  0  0  0  0  0  0  0  0  0
   -0.2876   -0.2258   -3.2377 H   0  0  0  0  0  0  0  0  0  0  0  0
    1.5792   -2.0165    1.3197 H   0  0  0  0  0  0  0  0  0  0  0  0
    3.7084    0.3296    2.7659 H   0  0  0  0  0  0  0  0  0  0  0  0
    4.8174   -0.4683   -1.3295 H   0  0  0  0  0  0  0  0  0  0  0  0
   -4.3804    0.1136   -1.8207 H   0  0  0  0  0  0  0  0  0  0  0  0
    4.1535    2.7146    2.4187 H   0  0  0  0  0  0  0  0  0  0  0  0
    5.2566    1.9189   -1.6722 H   0  0  0  0  0  0  0  0  0  0  0  0
    5.3371    4.4088    1.0679 H   0  0  0  0  0  0  0  0  0  0  0  0
    5.7991    4.0813   -0.5994 H   0  0  0  0  0  0  0  0  0  0  0  0
    4.0986    4.4315   -0.2093 H   0  0  0  0  0  0  0  0  0  0  0  0
   -6.7119   -0.1819   -1.6777 H   0  0  0  0  0  0  0  0  0  0  0  0
   -4.3520    0.6532    1.8628 H   0  0  0  0  0  0  0  0  0  0  0  0
   -8.7355   -0.2508   -0.2605 H   0  0  0  0  0  0  0  0  0  0  0  0
   -6.3459    0.5784    3.2125 H   0  0  0  0  0  0  0  0  0  0  0  0
   -8.5573    0.1286    2.1845 H   0  0  0  0  0  0  0  0  0  0  0  0
  1  5  2  0  0  0  0
  1  6  2  0  0  0  0
  1  8  1  0  0  0  0
  1 16  1  0  0  0  0
  2 11  1  0  0  0  0
  2 14  1  0  0  0  0
  3 10  1  0  0  0  0
  3 15  1  0  0  0  0
  4 13  1  0  0  0  0
  4 17  1  0  0  0  0
  7 17  2  0  0  0  0
  8 12  1  0  0  0  0
  8 38  1  0  0  0  0
  9 17  1  0  0  0  0
  9 23  1  0  0  0  0
  9 41  1  0  0  0  0
 10 11  1  0  0  0  0
 10 12  1  0  0  0  0
 10 30  1  0  0  0  0
 11 13  1  0  0  0  0
 11 31  1  0  0  0  0
 12 14  1  0  0  0  0
 12 32  1  0  0  0  0
 13 15  1  0  0  0  0
 13 33  1  0  0  0  0
 14 34  1  0  0  0  0
 14 35  1  0  0  0  0
 15 36  1  0  0  0  0
 15 37  1  0  0  0  0
 16 18  2  0  0  0  0
 16 19  1  0  0  0  0
 18 20  1  0  0  0  0
 18 39  1  0  0  0  0
 19 21  2  0  0  0  0
 19 40  1  0  0  0  0
 20 22  2  0  0  0  0
 20 42  1  0  0  0  0
 21 22  1  0  0  0  0
 21 43  1  0  0  0  0
 22 24  1  0  0  0  0
 23 25  2  0  0  0  0
 23 26  1  0  0  0  0
 24 44  1  0  0  0  0
 24 45  1  0  0  0  0
 24 46  1  0  0  0  0
 25 27  1  0  0  0  0
 25 47  1  0  0  0  0
 26 28  2  0  0  0  0
 26 48  1  0  0  0  0
 27 29  2  0  0  0  0
 27 49  1  0  0  0  0
 28 29  1  0  0  0  0
 28 50  1  0  0  0  0
 29 51  1  0  0  0  0
M  END
> <PUBCHEM_COMPOUND_CID>
11883345

> <PUBCHEM_CONFORMER_RMSD>
1

> <PUBCHEM_CONFORMER_DIVERSEORDER>
2
5
43
56
76
36
57
8
40
66
37
62
26
28
46
47
42
78
10
6
15
44
27
25
77
70
53
24
67
55
38
30
45
18
23
64
14
58
32
22
39
60
52
7
74
35
21
69
75
65
1
9
19
33
13
63
29
73
3
71
48
34
17
4
51
59
20
11
68
16
61
31
72
41
54
50
49
12

> <PUBCHEM_MMFF94_PARTIAL_CHARGES>
40
1 1.45
10 0.28
11 0.28
12 0.36
13 0.28
14 0.28
15 0.28
16 -0.01
17 0.78
18 -0.15
19 -0.15
2 -0.56
20 -0.15
21 -0.15
22 -0.14
23 0.12
24 0.14
25 -0.15
26 -0.15
27 -0.15
28 -0.15
29 -0.15
3 -0.56
38 0.42
39 0.15
4 -0.43
40 0.15
41 0.37
42 0.15
43 0.15
47 0.15
48 0.15
49 0.15
5 -0.65
50 0.15
51 0.15
6 -0.65
7 -0.57
8 -0.91
9 -0.55

> <PUBCHEM_EFFECTIVE_ROTOR_COUNT>
8.2

> <PUBCHEM_PHARMACOPHORE_FEATURES>
11
1 2 acceptor
1 3 acceptor
1 5 acceptor
1 6 acceptor
1 7 acceptor
1 8 donor
1 9 donor
5 2 10 11 12 14 rings
5 3 10 11 13 15 rings
6 16 18 19 20 21 22 rings
6 23 25 26 27 28 29 rings

> <PUBCHEM_HEAVY_ATOM_COUNT>
29

> <PUBCHEM_ATOM_DEF_STEREO_COUNT>
4

> <PUBCHEM_ATOM_UDEF_STEREO_COUNT>
0

> <PUBCHEM_BOND_DEF_STEREO_COUNT>
0

> <PUBCHEM_BOND_UDEF_STEREO_COUNT>
0

> <PUBCHEM_ISOTOPIC_ATOM_COUNT>
0

> <PUBCHEM_COMPONENT_COUNT>
1

> <PUBCHEM_CACTVS_TAUTO_COUNT>
2

> <PUBCHEM_CONFORMER_ID>
00B5535100000002

> <PUBCHEM_MMFF94_ENERGY>
72.6345

> <PUBCHEM_FEATURE_SELFOVERLAP>
56.558

> <PUBCHEM_SHAPE_FINGERPRINT>
10165383 225 18187932815957480580
10670039 82 14404918967913341691
10674148 151 17346322644193726576
10675989 125 10591757701781066830
10693767 8 8430323402760890749
10721379 63 13973695983704138364
11719270 70 17095525093684460611
11720765 8 10087642594108519058
11796584 16 14057298484003606505
1200032 147 17988363797415776748
12342043 65 17605547752589541118
12422481 6 18186235130637397375
12596602 18 18412547587871470955
12661589 4 14419002694332800329
12717326 69 16372997648788018753
13533116 47 18261111846402400338
14251764 75 18196652024259082192
14341114 328 17846775209286350199
14347332 77 11963381947735622575
146900 427 18341894108035142912
14840074 17 18060702818747990265
15001296 14 16845279601324123665
15183329 4 12179849381769761963
15419008 42 16010408203515214463
15475509 35 17023455340493982394
17857418 61 13984663659599484217
19311894 1 9293919451715398891
19377110 9 18343588421885149889
19438510 23 17558815425028679792
1979834 28 17894628180157423660
20567600 234 18412543223926189401
20715895 44 13542452164519326014
21130935 74 18113339683454700963
21315763 87 17894634755836535987
21365058 113 18126858101687839022
21792934 111 18041001705736509437
21895439 516 9871743586607215961
221357 26 10879997947445819283
23536364 44 10519442774825312283
3004659 81 12685089263725063544
3459 83 9583249374196386247
394071 54 18261955249247055524
397830 11 18187651357701651259
4340502 62 18412829101028165903
504579 68 12463282554841821969
5104073 3 18115027386289813789
5951187 136 16056306354385760752
6443934 186 18409166653470921667
960060 61 8142078793081622690
9658208 31 14692560048592243557

> <PUBCHEM_SHAPE_MULTIPOLES>
555.48
18.95
2.75
2.06
36.06
0.55
-0.11
7.03
-9.3
-7.26
-0.45
0.04
-0.09
-1.13

> <PUBCHEM_SHAPE_SELFOVERLAP>
1190.407

> <PUBCHEM_SHAPE_VOLUME>
307.2

> <PUBCHEM_COORDINATE_TYPE>
2
5
10

$$$$
