40778175
  -OEChem-12032416173D

 65 68  0     1  0  0  0  0  0999 V2000
    4.6417   -0.9350   -1.9672 S   0  0  0  0  0  0  0  0  0  0  0  0
    1.6709    2.3003   -0.6790 O   0  0  0  0  0  0  0  0  0  0  0  0
    1.5822    3.8893    2.5407 O   0  0  0  0  0  0  0  0  0  0  0  0
    3.2536    4.6248    0.4831 O   0  0  0  0  0  0  0  0  0  0  0  0
   -1.1863    3.1567   -1.1278 O   0  0  0  0  0  0  0  0  0  0  0  0
    5.9684   -0.3488   -1.9527 O   0  0  0  0  0  0  0  0  0  0  0  0
    4.1704   -1.6441   -3.1415 O   0  0  0  0  0  0  0  0  0  0  0  0
   -2.5377    1.5543   -0.1248 N   0  0  0  0  0  0  0  0  0  0  0  0
   -4.9298   -0.0750   -0.0675 N   0  0  0  0  0  0  0  0  0  0  0  0
    3.5027    0.2720   -1.5035 N   0  0  0  0  0  0  0  0  0  0  0  0
    0.9479    2.8590    0.4320 C   0  0  2  0  0  0  0  0  0  0  0  0
    1.9415    2.9198    1.5797 C   0  0  1  0  0  0  0  0  0  0  0  0
    3.2282    3.2460    0.8502 C   0  0  1  0  0  0  0  0  0  0  0  0
    3.0892    2.4196   -0.4235 C   0  0  1  0  0  0  0  0  0  0  0  0
   -0.2687    2.0022    0.7332 C   0  0  0  0  0  0  0  0  0  0  0  0
    3.6577    1.0137   -0.2871 C   0  0  0  0  0  0  0  0  0  0  0  0
   -1.3641    2.2965   -0.2622 C   0  0  0  0  0  0  0  0  0  0  0  0
   -3.6468    1.7841   -1.0470 C   0  0  0  0  0  0  0  0  0  0  0  0
   -2.7430    0.5255    0.8973 C   0  0  0  0  0  0  0  0  0  0  0  0
   -4.4372    0.5062   -1.3195 C   0  0  0  0  0  0  0  0  0  0  0  0
   -4.2216    0.2516    1.1727 C   0  0  0  0  0  0  0  0  0  0  0  0
   -6.0621   -0.8860   -0.0572 C   0  0  0  0  0  0  0  0  0  0  0  0
    4.5270   -2.0571   -0.6062 C   0  0  0  0  0  0  0  0  0  0  0  0
   -6.3778   -1.6573   -1.1755 C   0  0  0  0  0  0  0  0  0  0  0  0
   -6.8803   -0.9266    1.0717 C   0  0  0  0  0  0  0  0  0  0  0  0
    3.6068   -3.1048   -0.6429 C   0  0  0  0  0  0  0  0  0  0  0  0
    5.3554   -1.8949    0.5042 C   0  0  0  0  0  0  0  0  0  0  0  0
   -7.5119   -2.4695   -1.1652 C   0  0  0  0  0  0  0  0  0  0  0  0
   -8.0144   -1.7386    1.0822 C   0  0  0  0  0  0  0  0  0  0  0  0
   -8.3302   -2.5100   -0.0362 C   0  0  0  0  0  0  0  0  0  0  0  0
    3.5151   -3.9903    0.4310 C   0  0  0  0  0  0  0  0  0  0  0  0
    5.2636   -2.7803    1.5780 C   0  0  0  0  0  0  0  0  0  0  0  0
    4.3436   -3.8280    1.5414 C   0  0  0  0  0  0  0  0  0  0  0  0
    4.2459   -4.7753    2.6893 C   0  0  0  0  0  0  0  0  0  0  0  0
    0.6521    3.8818    0.1637 H   0  0  0  0  0  0  0  0  0  0  0  0
    2.0226    1.9438    2.0734 H   0  0  0  0  0  0  0  0  0  0  0  0
    4.1267    3.0382    1.4383 H   0  0  0  0  0  0  0  0  0  0  0  0
    3.5334    2.9233   -1.2900 H   0  0  0  0  0  0  0  0  0  0  0  0
   -0.6449    2.2470    1.7322 H   0  0  0  0  0  0  0  0  0  0  0  0
   -0.0155    0.9377    0.6815 H   0  0  0  0  0  0  0  0  0  0  0  0
    3.1346    0.4695    0.5072 H   0  0  0  0  0  0  0  0  0  0  0  0
    4.7147    1.0879   -0.0120 H   0  0  0  0  0  0  0  0  0  0  0  0
   -3.2738    2.2028   -1.9877 H   0  0  0  0  0  0  0  0  0  0  0  0
   -4.2914    2.5420   -0.5850 H   0  0  0  0  0  0  0  0  0  0  0  0
   -2.2501    0.8102    1.8303 H   0  0  0  0  0  0  0  0  0  0  0  0
   -2.2523   -0.3837    0.5287 H   0  0  0  0  0  0  0  0  0  0  0  0
   -5.2695    0.7606   -1.9871 H   0  0  0  0  0  0  0  0  0  0  0  0
   -3.7977   -0.2236   -1.8310 H   0  0  0  0  0  0  0  0  0  0  0  0
   -4.2789   -0.5762    1.8901 H   0  0  0  0  0  0  0  0  0  0  0  0
   -4.6851    1.1331    1.6324 H   0  0  0  0  0  0  0  0  0  0  0  0
    2.3146    3.9539    3.1771 H   0  0  0  0  0  0  0  0  0  0  0  0
    4.0763    4.7784   -0.0124 H   0  0  0  0  0  0  0  0  0  0  0  0
    2.5451    0.1799   -1.8648 H   0  0  0  0  0  0  0  0  0  0  0  0
   -5.7542   -1.6604   -2.0652 H   0  0  0  0  0  0  0  0  0  0  0  0
   -6.6730   -0.3265    1.9533 H   0  0  0  0  0  0  0  0  0  0  0  0
    2.9472   -3.2454   -1.4944 H   0  0  0  0  0  0  0  0  0  0  0  0
    6.0769   -1.0845    0.5553 H   0  0  0  0  0  0  0  0  0  0  0  0
   -7.7564   -3.0727   -2.0346 H   0  0  0  0  0  0  0  0  0  0  0  0
   -8.6538   -1.7678    1.9596 H   0  0  0  0  0  0  0  0  0  0  0  0
   -9.2133   -3.1422   -0.0281 H   0  0  0  0  0  0  0  0  0  0  0  0
    2.7944   -4.8028    0.3909 H   0  0  0  0  0  0  0  0  0  0  0  0
    5.9151   -2.6441    2.4372 H   0  0  0  0  0  0  0  0  0  0  0  0
    4.9262   -5.6194    2.5386 H   0  0  0  0  0  0  0  0  0  0  0  0
    4.5031   -4.2812    3.6324 H   0  0  0  0  0  0  0  0  0  0  0  0
    3.2264   -5.1609    2.7977 H   0  0  0  0  0  0  0  0  0  0  0  0
  1  6  2  0  0  0  0
  1  7  2  0  0  0  0
  1 10  1  0  0  0  0
  1 23  1  0  0  0  0
  2 11  1  0  0  0  0
  2 14  1  0  0  0  0
  3 12  1  0  0  0  0
  3 51  1  0  0  0  0
  4 13  1  0  0  0  0
  4 52  1  0  0  0  0
  5 17  2  0  0  0  0
  8 17  1  0  0  0  0
  8 18  1  0  0  0  0
  8 19  1  0  0  0  0
  9 20  1  0  0  0  0
  9 21  1  0  0  0  0
  9 22  1  0  0  0  0
 10 16  1  0  0  0  0
 10 53  1  0  0  0  0
 11 12  1  0  0  0  0
 11 15  1  0  0  0  0
 11 35  1  0  0  0  0
 12 13  1  0  0  0  0
 12 36  1  0  0  0  0
 13 14  1  0  0  0  0
 13 37  1  0  0  0  0
 14 16  1  0  0  0  0
 14 38  1  0  0  0  0
 15 17  1  0  0  0  0
 15 39  1  0  0  0  0
 15 40  1  0  0  0  0
 16 41  1  0  0  0  0
 16 42  1  0  0  0  0
 18 20  1  0  0  0  0
 18 43  1  0  0  0  0
 18 44  1  0  0  0  0
 19 21  1  0  0  0  0
 19 45  1  0  0  0  0
 19 46  1  0  0  0  0
 20 47  1  0  0  0  0
 20 48  1  0  0  0  0
 21 49  1  0  0  0  0
 21 50  1  0  0  0  0
 22 24  2  0  0  0  0
 22 25  1  0  0  0  0
 23 26  2  0  0  0  0
 23 27  1  0  0  0  0
 24 28  1  0  0  0  0
 24 54  1  0  0  0  0
 25 29  2  0  0  0  0
 25 55  1  0  0  0  0
 26 31  1  0  0  0  0
 26 56  1  0  0  0  0
 27 32  2  0  0  0  0
 27 57  1  0  0  0  0
 28 30  2  0  0  0  0
 28 58  1  0  0  0  0
 29 30  1  0  0  0  0
 29 59  1  0  0  0  0
 30 60  1  0  0  0  0
 31 33  2  0  0  0  0
 31 61  1  0  0  0  0
 32 33  1  0  0  0  0
 32 62  1  0  0  0  0
 33 34  1  0  0  0  0
 34 63  1  0  0  0  0
 34 64  1  0  0  0  0
 34 65  1  0  0  0  0
M  END
> <PUBCHEM_COMPOUND_CID>
40778175

> <PUBCHEM_CONFORMER_RMSD>
1.2

> <PUBCHEM_CONFORMER_DIVERSEORDER>
1
116
141
28
74
81
147
134
3
33
66
19
51
48
90
113
118
152
43
122
117
160
26
94
130
98
144
17
127
128
92
170
168
38
131
136
80
172
121
25
14
47
59
15
76
13
101
2
151
41
68
88
37
78
22
156
18
58
77
140
133
6
44
89
93
145
112
56
169
36
129
148
65
7
91
64
142
103
163
106
8
138
86
135
167
162
53
105
161
123
143
42
166
21
5
146
10
32
125
45
70
11
109
102
9
55
60
137
115
110
24
155
61
57
72
84
63
100
67
52
87
119
154
96
165
79
99
149
31
49
97
159
107
75
95
27
73
23
54
108
153
29
124
34
126
171
40
20
104
158
139
120
69
82
46
39
12
35
111
83
132
164
157
71
30
16
62
50
4
150
114
85

> <PUBCHEM_MMFF94_PARTIAL_CHARGES>
46
1 1.45
10 -0.91
11 0.28
12 0.28
13 0.28
14 0.28
15 0.06
16 0.36
17 0.57
18 0.3
19 0.3
2 -0.56
20 0.37
21 0.37
22 0.1
23 -0.01
24 -0.15
25 -0.15
26 -0.15
27 -0.15
28 -0.15
29 -0.15
3 -0.68
30 -0.15
31 -0.15
32 -0.15
33 -0.14
34 0.14
4 -0.68
5 -0.57
51 0.4
52 0.4
53 0.42
54 0.15
55 0.15
56 0.15
57 0.15
58 0.15
59 0.15
6 -0.65
60 0.15
61 0.15
62 0.15
7 -0.65
8 -0.66
9 -0.84

> <PUBCHEM_EFFECTIVE_ROTOR_COUNT>
10.2

> <PUBCHEM_PHARMACOPHORE_FEATURES>
14
1 10 donor
1 2 acceptor
1 3 acceptor
1 3 donor
1 4 acceptor
1 4 donor
1 5 acceptor
1 6 acceptor
1 7 acceptor
1 9 cation
5 2 11 12 13 14 rings
6 22 24 25 28 29 30 rings
6 23 26 27 31 32 33 rings
6 8 9 18 19 20 21 rings

> <PUBCHEM_HEAVY_ATOM_COUNT>
34

> <PUBCHEM_ATOM_DEF_STEREO_COUNT>
4

> <PUBCHEM_ATOM_UDEF_STEREO_COUNT>
0

> <PUBCHEM_BOND_DEF_STEREO_COUNT>
0

> <PUBCHEM_BOND_UDEF_STEREO_COUNT>
0

> <PUBCHEM_ISOTOPIC_ATOM_COUNT>
0

> <PUBCHEM_COMPONENT_COUNT>
1

> <PUBCHEM_CACTVS_TAUTO_COUNT>
1

> <PUBCHEM_CONFORMER_ID>
026E39BF00000001

> <PUBCHEM_MMFF94_ENERGY>
90.5766

> <PUBCHEM_FEATURE_SELFOVERLAP>
71.079

> <PUBCHEM_SHAPE_FINGERPRINT>
10622 236 17898851241058407930
10908659 184 18131066017970057351
11227150 75 17460578231268459130
11534866 41 18055062431212699945
11801155 225 18126564759169110463
11966995 16 18261668255965286071
12107183 9 17915481419127687345
12147406 95 18114728378691670208
12975358 362 9799410096449068623
13008946 335 17840577417271883496
13533116 47 17987805240812875353
13553639 21 18335709282680222035
13782708 43 18334573543154874965
14150023 79 18267865176318754440
14347332 77 18336828602716920805
15019793 15 18194962074855782263
15328684 2 16414380969161966939
15475509 35 18341328976302002497
17134984 74 18261117391711718062
17324776 126 17681262266341096346
19301679 30 18342175570586550369
19315092 285 18273216404367666873
19841028 212 18200305667650393287
20775438 99 18190167078607956451
21133410 52 17970912155982470034
21585483 132 18129369566534813319
21703447 108 18272650160396427712
23569914 152 17759766327764876181
23569943 247 18408887305215731779
24893989 43 18058170716004002526
24983565 74 17986667289513378255
25222932 49 18411422774623132646
2748736 6 9367340414960302775
397830 11 10591761035234767181
439807 62 18259988133140372055
50009960 94 18116972443343673570
57527295 17 18263659385249288832
59025328 239 16879926132450113590
613672 6 17843673362288301572
6201460 15 17755574945700057850
6677587 24 16589163803872981318
6697151 62 17987779853351379077
86090 222 18334580191057458683
9831232 110 18261392295509759341

> <PUBCHEM_SHAPE_MULTIPOLES>
653.39
21.4
6.49
2.16
42.15
0.12
-0.24
24.88
-1.86
-9.89
3.7
-2.95
0.92
-1.17

> <PUBCHEM_SHAPE_SELFOVERLAP>
1372.154

> <PUBCHEM_SHAPE_VOLUME>
368.7

> <PUBCHEM_COORDINATE_TYPE>
2
5
10

$$$$
