71693834
  -OEChem-12032416233D

 40 41  0     1  0  0  0  0  0999 V2000
   -2.0968   -2.2944    0.6519 O   0  0  0  0  0  0  0  0  0  0  0  0
    0.5055   -3.0252    1.1211 O   0  0  0  0  0  0  0  0  0  0  0  0
   -1.4377    0.4755   -0.5246 N   0  0  0  0  0  0  0  0  0  0  0  0
    3.3578    2.1552   -0.6889 N   0  0  0  0  0  0  0  0  0  0  0  0
   -0.5314   -0.5809   -0.0888 C   0  0  2  0  0  0  0  0  0  0  0  0
    0.7713   -0.6097   -0.9203 C   0  0  2  0  0  0  0  0  0  0  0  0
   -1.1249   -1.9696   -0.3237 C   0  0  1  0  0  0  0  0  0  0  0  0
    1.1733   -2.1068   -1.0087 C   0  0  0  0  0  0  0  0  0  0  0  0
    0.0996   -2.8761   -0.2365 C   0  0  1  0  0  0  0  0  0  0  0  0
    1.8537    0.2906   -0.3643 C   0  0  0  0  0  0  0  0  0  0  0  0
   -2.4083    0.7883    0.5148 C   0  0  0  0  0  0  0  0  0  0  0  0
   -3.4272    1.8502    0.0669 C   0  0  0  0  0  0  0  0  0  0  0  0
    2.3413    0.1123    0.9256 C   0  0  0  0  0  0  0  0  0  0  0  0
    2.3903    1.3173   -1.1243 C   0  0  0  0  0  0  0  0  0  0  0  0
   -4.4132    2.2234    1.1769 C   0  0  0  0  0  0  0  0  0  0  0  0
   -4.1968    1.3443   -1.1562 C   0  0  0  0  0  0  0  0  0  0  0  0
    3.3366    0.9543    1.4092 C   0  0  0  0  0  0  0  0  0  0  0  0
    3.8069    1.9513    0.5698 C   0  0  0  0  0  0  0  0  0  0  0  0
   -0.3056   -0.4499    0.9779 H   0  0  0  0  0  0  0  0  0  0  0  0
    0.5490   -0.2868   -1.9484 H   0  0  0  0  0  0  0  0  0  0  0  0
   -1.5817   -2.0397   -1.3195 H   0  0  0  0  0  0  0  0  0  0  0  0
    1.1485   -2.4099   -2.0629 H   0  0  0  0  0  0  0  0  0  0  0  0
    2.1815   -2.3051   -0.6300 H   0  0  0  0  0  0  0  0  0  0  0  0
   -0.0912   -3.8736   -0.6431 H   0  0  0  0  0  0  0  0  0  0  0  0
   -0.9067    1.3190   -0.7407 H   0  0  0  0  0  0  0  0  0  0  0  0
   -1.8879    1.1629    1.4057 H   0  0  0  0  0  0  0  0  0  0  0  0
   -2.9697   -0.0998    0.8195 H   0  0  0  0  0  0  0  0  0  0  0  0
   -2.3558   -3.2205    0.5077 H   0  0  0  0  0  0  0  0  0  0  0  0
   -2.8867    2.7620   -0.2195 H   0  0  0  0  0  0  0  0  0  0  0  0
    1.3141   -3.5653    1.1256 H   0  0  0  0  0  0  0  0  0  0  0  0
    1.9660   -0.6791    1.5672 H   0  0  0  0  0  0  0  0  0  0  0  0
    2.0525    1.5088   -2.1380 H   0  0  0  0  0  0  0  0  0  0  0  0
   -5.0001    1.3549    1.4944 H   0  0  0  0  0  0  0  0  0  0  0  0
   -5.1080    2.9990    0.8381 H   0  0  0  0  0  0  0  0  0  0  0  0
   -3.8795    2.6093    2.0517 H   0  0  0  0  0  0  0  0  0  0  0  0
   -4.7175    0.4051   -0.9394 H   0  0  0  0  0  0  0  0  0  0  0  0
   -4.9473    2.0783   -1.4697 H   0  0  0  0  0  0  0  0  0  0  0  0
   -3.5341    1.1774   -2.0114 H   0  0  0  0  0  0  0  0  0  0  0  0
    3.7329    0.8330    2.4108 H   0  0  0  0  0  0  0  0  0  0  0  0
    4.5832    2.6340    0.8992 H   0  0  0  0  0  0  0  0  0  0  0  0
  1  7  1  0  0  0  0
  1 28  1  0  0  0  0
  2  9  1  0  0  0  0
  2 30  1  0  0  0  0
  3  5  1  0  0  0  0
  3 11  1  0  0  0  0
  3 25  1  0  0  0  0
  4 14  1  0  0  0  0
  4 18  2  0  0  0  0
  5  6  1  0  0  0  0
  5  7  1  0  0  0  0
  5 19  1  0  0  0  0
  6  8  1  0  0  0  0
  6 10  1  0  0  0  0
  6 20  1  0  0  0  0
  7  9  1  0  0  0  0
  7 21  1  0  0  0  0
  8  9  1  0  0  0  0
  8 22  1  0  0  0  0
  8 23  1  0  0  0  0
  9 24  1  0  0  0  0
 10 13  1  0  0  0  0
 10 14  2  0  0  0  0
 11 12  1  0  0  0  0
 11 26  1  0  0  0  0
 11 27  1  0  0  0  0
 12 15  1  0  0  0  0
 12 16  1  0  0  0  0
 12 29  1  0  0  0  0
 13 17  2  0  0  0  0
 13 31  1  0  0  0  0
 14 32  1  0  0  0  0
 15 33  1  0  0  0  0
 15 34  1  0  0  0  0
 15 35  1  0  0  0  0
 16 36  1  0  0  0  0
 16 37  1  0  0  0  0
 16 38  1  0  0  0  0
 17 18  1  0  0  0  0
 17 39  1  0  0  0  0
 18 40  1  0  0  0  0
M  END
> <PUBCHEM_COMPOUND_CID>
71693834

> <PUBCHEM_CONFORMER_RMSD>
0.6

> <PUBCHEM_CONFORMER_DIVERSEORDER>
1
34
31
32
27
50
49
41
47
35
21
18
55
39
61
40
16
42
56
36
22
44
53
60
15
3
29
26
48
43
58
23
57
54
20
13
45
19
8
28
14
59
17
33
38
46
24
30
25
10
7
37
12
5
52
51
9
4
6
11
2

> <PUBCHEM_MMFF94_PARTIAL_CHARGES>
21
1 -0.68
10 -0.14
11 0.27
13 -0.15
14 0.16
17 -0.15
18 0.16
2 -0.68
25 0.36
28 0.4
3 -0.9
30 0.4
31 0.15
32 0.15
39 0.15
4 -0.62
40 0.15
5 0.27
6 0.14
7 0.28
9 0.28

> <PUBCHEM_EFFECTIVE_ROTOR_COUNT>
5

> <PUBCHEM_PHARMACOPHORE_FEATURES>
10
1 1 acceptor
1 1 donor
1 2 acceptor
1 2 donor
1 3 cation
1 3 donor
1 4 acceptor
3 12 15 16 hydrophobe
5 5 6 7 8 9 rings
6 4 10 13 14 17 18 rings

> <PUBCHEM_HEAVY_ATOM_COUNT>
18

> <PUBCHEM_ATOM_DEF_STEREO_COUNT>
4

> <PUBCHEM_ATOM_UDEF_STEREO_COUNT>
0

> <PUBCHEM_BOND_DEF_STEREO_COUNT>
0

> <PUBCHEM_BOND_UDEF_STEREO_COUNT>
0

> <PUBCHEM_ISOTOPIC_ATOM_COUNT>
0

> <PUBCHEM_COMPONENT_COUNT>
1

> <PUBCHEM_CACTVS_TAUTO_COUNT>
1

> <PUBCHEM_CONFORMER_ID>
0445F60A00000001

> <PUBCHEM_MMFF94_ENERGY>
44.9548

> <PUBCHEM_FEATURE_SELFOVERLAP>
50.756

> <PUBCHEM_SHAPE_FINGERPRINT>
11140007 195 13912881943884643633
11725454 13 16485253293506049032
12403259 327 16298394547756133481
12553582 1 9367343751791449213
12788726 201 17903636624488502130
13134695 92 17541092074476772815
13140716 1 18409731729317272178
13294875 104 18265340512526044502
13583140 156 16732978747843728973
13764800 53 18271533107662499033
13878862 14 17761489197935750429
13965767 371 18260259716401861076
14787075 74 18200306745248625909
15906896 17 18194395826050388446
16752209 62 18195235844127517526
1741750 31 18341048613816630512
17868525 174 17256817694038855145
1798214 55 18341899571418705249
1813 80 8358255999033119241
18186145 218 18196376922949814397
19765921 60 18130500860413234897
204376 136 18409166610716628637
20510252 161 18196940095703458235
20671657 1 18268432334664372967
21401589 2 17988354987598895161
21403212 168 18194657316770572322
21524375 3 18342447140914352517
21731228 192 18335419088512295432
2255824 54 18125163723582133455
23558518 356 18336263556524657598
2748010 2 18339662095194144111
350125 39 18339658796654089638
4340502 62 18410009902265738613
474 4 18339921515846046861
49207404 50 18262537917716508201
495365 180 17973156224236895525
5895379 119 15694351257684542609
6333272 397 18410013230369689629
633830 44 18130793309021311605
7364860 26 18055915385721105759
7808743 9 18267312112979284052
81228 2 18050288372909646943
81539 233 18337947892326301029
84936 182 18058448703593303521
90316 7 17619913193812386186

> <PUBCHEM_SHAPE_MULTIPOLES>
348.73
7.2
3.46
1.26
4.99
2.22
0.07
-8.24
0.94
-0.05
0.44
-0.18
-0.19
-0.09

> <PUBCHEM_SHAPE_SELFOVERLAP>
716.204

> <PUBCHEM_SHAPE_VOLUME>
201.5

> <PUBCHEM_COORDINATE_TYPE>
2
5
10

$$$$
