40777125
  -OEChem-12032416183D

 59 62  0     1  0  0  0  0  0999 V2000
   -2.1413   -2.8349    0.5970 Br  0  0  0  0  0  0  0  0  0  0  0  0
    4.1816   -1.5488   -0.8820 S   0  0  0  0  0  0  0  0  0  0  0  0
    5.3836   -1.6805   -1.6818 O   0  0  0  0  0  0  0  0  0  0  0  0
    2.8829   -1.8834   -1.4340 O   0  0  0  0  0  0  0  0  0  0  0  0
    1.9261    2.2334    1.9090 N   0  0  2  0  0  0  0  0  0  0  0  0
    4.1341    0.0376   -0.1965 N   0  0  0  0  0  0  0  0  0  0  0  0
   -0.8105    1.4390   -1.6549 N   0  0  0  0  0  0  0  0  0  0  0  0
   -2.6848   -0.0701   -1.7859 N   0  0  0  0  0  0  0  0  0  0  0  0
    1.0131    3.2079   -0.3270 C   0  0  2  0  0  0  0  0  0  0  0  0
   -0.1168    2.4761    0.4488 C   0  0  2  0  0  0  0  0  0  0  0  0
    2.8131    1.8390    0.7830 C   0  0  2  0  0  0  0  0  0  0  0  0
    2.1812    2.2291   -0.5706 C   0  0  0  0  0  0  0  0  0  0  0  0
    1.5412    4.3223    0.6017 C   0  0  0  0  0  0  0  0  0  0  0  0
    0.5435    1.7553    1.6587 C   0  0  0  0  0  0  0  0  0  0  0  0
    1.8997    3.7146    1.9692 C   0  0  0  0  0  0  0  0  0  0  0  0
    3.1905    0.3568    0.8299 C   0  0  0  0  0  0  0  0  0  0  0  0
   -1.0472    1.5590   -0.3321 C   0  0  0  0  0  0  0  0  0  0  0  0
   -2.0690    0.9059    0.3264 C   0  0  0  0  0  0  0  0  0  0  0  0
   -2.8642    0.0963   -0.4591 C   0  0  0  0  0  0  0  0  0  0  0  0
   -1.6550    0.6206   -2.3111 C   0  0  0  0  0  0  0  0  0  0  0  0
    4.3972   -2.5181    0.5932 C   0  0  0  0  0  0  0  0  0  0  0  0
   -3.9679   -0.6408    0.1084 C   0  0  0  0  0  0  0  0  0  0  0  0
    4.4733   -4.0020    0.2742 C   0  0  0  0  0  0  0  0  0  0  0  0
   -1.4263    0.4637   -3.7764 C   0  0  0  0  0  0  0  0  0  0  0  0
    4.6376   -4.8340    1.5350 C   0  0  0  0  0  0  0  0  0  0  0  0
   -3.8139   -1.9321    0.6125 C   0  0  0  0  0  0  0  0  0  0  0  0
   -5.2179   -0.0227    0.1433 C   0  0  0  0  0  0  0  0  0  0  0  0
   -4.9100   -2.6055    1.1518 C   0  0  0  0  0  0  0  0  0  0  0  0
   -6.3140   -0.6961    0.6825 C   0  0  0  0  0  0  0  0  0  0  0  0
   -6.1601   -1.9875    1.1868 C   0  0  0  0  0  0  0  0  0  0  0  0
    0.6551    3.6342   -1.2701 H   0  0  0  0  0  0  0  0  0  0  0  0
   -0.7776    3.2621    0.8465 H   0  0  0  0  0  0  0  0  0  0  0  0
    3.7557    2.3967    0.8894 H   0  0  0  0  0  0  0  0  0  0  0  0
    1.8228    1.3504   -1.1183 H   0  0  0  0  0  0  0  0  0  0  0  0
    2.9389    2.7112   -1.2008 H   0  0  0  0  0  0  0  0  0  0  0  0
    0.7845    5.1051    0.7292 H   0  0  0  0  0  0  0  0  0  0  0  0
    2.4242    4.7940    0.1536 H   0  0  0  0  0  0  0  0  0  0  0  0
   -0.0603    1.9383    2.5579 H   0  0  0  0  0  0  0  0  0  0  0  0
    0.5391    0.6661    1.5378 H   0  0  0  0  0  0  0  0  0  0  0  0
    2.8739    4.0937    2.3015 H   0  0  0  0  0  0  0  0  0  0  0  0
    1.1815    4.0429    2.7313 H   0  0  0  0  0  0  0  0  0  0  0  0
    2.2971   -0.2655    0.7176 H   0  0  0  0  0  0  0  0  0  0  0  0
    3.6342    0.1256    1.8054 H   0  0  0  0  0  0  0  0  0  0  0  0
    5.0469    0.5005   -0.0942 H   0  0  0  0  0  0  0  0  0  0  0  0
   -2.2404    1.0259    1.3896 H   0  0  0  0  0  0  0  0  0  0  0  0
    3.5458   -2.3264    1.2525 H   0  0  0  0  0  0  0  0  0  0  0  0
    5.3171   -2.1782    1.0795 H   0  0  0  0  0  0  0  0  0  0  0  0
    3.5664   -4.3227   -0.2515 H   0  0  0  0  0  0  0  0  0  0  0  0
    5.3144   -4.1995   -0.4005 H   0  0  0  0  0  0  0  0  0  0  0  0
   -1.9980    1.2198   -4.3223 H   0  0  0  0  0  0  0  0  0  0  0  0
   -0.3656    0.5827   -4.0187 H   0  0  0  0  0  0  0  0  0  0  0  0
   -1.7422   -0.5279   -4.1150 H   0  0  0  0  0  0  0  0  0  0  0  0
    5.5555   -4.5635    2.0666 H   0  0  0  0  0  0  0  0  0  0  0  0
    3.7913   -4.6890    2.2141 H   0  0  0  0  0  0  0  0  0  0  0  0
    4.6922   -5.8977    1.2831 H   0  0  0  0  0  0  0  0  0  0  0  0
   -5.3582    0.9834   -0.2453 H   0  0  0  0  0  0  0  0  0  0  0  0
   -4.8108   -3.6123    1.5497 H   0  0  0  0  0  0  0  0  0  0  0  0
   -7.2874   -0.2151    0.7097 H   0  0  0  0  0  0  0  0  0  0  0  0
   -7.0137   -2.5117    1.6066 H   0  0  0  0  0  0  0  0  0  0  0  0
  1 26  1  0  0  0  0
  2  3  2  0  0  0  0
  2  4  2  0  0  0  0
  2  6  1  0  0  0  0
  2 21  1  0  0  0  0
  5 11  1  0  0  0  0
  5 14  1  0  0  0  0
  5 15  1  0  0  0  0
  6 16  1  0  0  0  0
  6 44  1  0  0  0  0
  7 17  2  0  0  0  0
  7 20  1  0  0  0  0
  8 19  1  0  0  0  0
  8 20  2  0  0  0  0
  9 10  1  0  0  0  0
  9 12  1  0  0  0  0
  9 13  1  0  0  0  0
  9 31  1  0  0  0  0
 10 14  1  0  0  0  0
 10 17  1  0  0  0  0
 10 32  1  0  0  0  0
 11 12  1  0  0  0  0
 11 16  1  0  0  0  0
 11 33  1  0  0  0  0
 12 34  1  0  0  0  0
 12 35  1  0  0  0  0
 13 15  1  0  0  0  0
 13 36  1  0  0  0  0
 13 37  1  0  0  0  0
 14 38  1  0  0  0  0
 14 39  1  0  0  0  0
 15 40  1  0  0  0  0
 15 41  1  0  0  0  0
 16 42  1  0  0  0  0
 16 43  1  0  0  0  0
 17 18  1  0  0  0  0
 18 19  2  0  0  0  0
 18 45  1  0  0  0  0
 19 22  1  0  0  0  0
 20 24  1  0  0  0  0
 21 23  1  0  0  0  0
 21 46  1  0  0  0  0
 21 47  1  0  0  0  0
 22 26  1  0  0  0  0
 22 27  2  0  0  0  0
 23 25  1  0  0  0  0
 23 48  1  0  0  0  0
 23 49  1  0  0  0  0
 24 50  1  0  0  0  0
 24 51  1  0  0  0  0
 24 52  1  0  0  0  0
 25 53  1  0  0  0  0
 25 54  1  0  0  0  0
 25 55  1  0  0  0  0
 26 28  2  0  0  0  0
 27 29  1  0  0  0  0
 27 56  1  0  0  0  0
 28 30  1  0  0  0  0
 28 57  1  0  0  0  0
 29 30  2  0  0  0  0
 29 58  1  0  0  0  0
 30 59  1  0  0  0  0
M  END
> <PUBCHEM_COMPOUND_CID>
40777125

> <PUBCHEM_CONFORMER_RMSD>
1.2

> <PUBCHEM_CONFORMER_DIVERSEORDER>
1
14
9
73
83
63
57
79
60
10
68
78
48
62
64
28
33
55
49
51
86
25
75
77
42
80
82
84
45
81
12
41
74
85
15
69
29
22
11
21
17
34
24
67
54
53
6
72
18
31
30
50
61
26
47
43
2
32
7
52
37
87
58
70
39
8
36
20
4
13
38
23
27
56
46
66
5
16
40
19
59
3
71
35
76
44
65

> <PUBCHEM_MMFF94_PARTIAL_CHARGES>
30
1 -0.11
10 0.14
11 0.27
14 0.27
15 0.27
16 0.36
17 0.17
18 -0.15
19 0.31
2 1.33
20 0.48
21 0.11
24 0.14
26 0.11
27 -0.15
28 -0.15
29 -0.15
3 -0.65
30 -0.15
4 -0.65
44 0.42
45 0.15
5 -0.81
56 0.15
57 0.15
58 0.15
59 0.15
6 -0.91
7 -0.62
8 -0.62

> <PUBCHEM_EFFECTIVE_ROTOR_COUNT>
8.2

> <PUBCHEM_PHARMACOPHORE_FEATURES>
11
1 1 hydrophobe
1 25 hydrophobe
1 3 acceptor
1 4 acceptor
1 5 cation
1 6 donor
1 7 acceptor
3 7 8 20 cation
6 22 26 27 28 29 30 rings
6 7 8 17 18 19 20 rings
8 5 9 10 11 12 13 14 15 rings

> <PUBCHEM_HEAVY_ATOM_COUNT>
30

> <PUBCHEM_ATOM_DEF_STEREO_COUNT>
3

> <PUBCHEM_ATOM_UDEF_STEREO_COUNT>
0

> <PUBCHEM_BOND_DEF_STEREO_COUNT>
0

> <PUBCHEM_BOND_UDEF_STEREO_COUNT>
0

> <PUBCHEM_ISOTOPIC_ATOM_COUNT>
0

> <PUBCHEM_COMPONENT_COUNT>
1

> <PUBCHEM_CACTVS_TAUTO_COUNT>
1

> <PUBCHEM_CONFORMER_ID>
026E35A500000001

> <PUBCHEM_MMFF94_ENERGY>
72.2675

> <PUBCHEM_FEATURE_SELFOVERLAP>
55.838

> <PUBCHEM_SHAPE_FINGERPRINT>
10074138 170 17624981525635846920
10305334 12 17766565646966695187
10764073 3 18268717117546792461
11513181 2 17836376212499469462
12107183 9 18199484190276414649
12128747 34 18412268359110193889
12623949 98 17898857009204488387
12633046 712 18262791874474120557
13402501 40 18408890663041308410
13533116 47 18199757006466745481
13583140 156 17342096254186328729
14251764 30 18334298634624263467
14844126 61 17195693721068240110
14866123 147 18051976914017822553
15475509 35 18337963405922351411
15537594 2 17775004630786036892
15664445 248 16661773369516503797
161222 10 16736357705778639659
19319366 153 17484524786603344425
20505436 4 17128181855396478693
20775530 9 18343299232888531166
21315759 227 18118397337815805190
21421861 104 17489031560327356840
21716022 299 18194992771118806076
21796203 349 17988924475188671178
23466295 7 17978792307728788816
23559900 14 18336835311487680837
345986 75 17704358748999758472
437795 139 17242721006046635082
4394409 98 16454009278864863730
4461854 278 16964096340825661002
46194498 28 17822855406717780212
484985 159 17684930198417413058
5265222 85 17400939981289592692
5309563 4 18342181042189827174
613672 6 18122313845514889882
6371380 46 18336544911864197997
6697151 62 18200576030734033029
6700243 42 17167853141354023559
7970288 3 18336828576652251018
86090 222 18042127716231191283
9961470 85 16969973771974519698

> <PUBCHEM_SHAPE_MULTIPOLES>
595.52
12.48
5.74
2.25
8.09
1.96
-2
15.07
2.77
-8.8
3.11
0.06
-0.71
2.02

> <PUBCHEM_SHAPE_SELFOVERLAP>
1238.177

> <PUBCHEM_SHAPE_VOLUME>
348

> <PUBCHEM_COORDINATE_TYPE>
2
5
10

$$$$
