38030984
  -OEChem-12032416283D

 68 71  0     1  0  0  0  0  0999 V2000
    5.2333    3.0120    0.8018 F   0  0  0  0  0  0  0  0  0  0  0  0
   -7.6372    3.6384    0.4905 O   0  0  0  0  0  0  0  0  0  0  0  0
    3.3079   -0.6731    0.7053 O   0  0  0  0  0  0  0  0  0  0  0  0
   -4.1240   -0.1067    0.3226 N   0  0  0  0  0  0  0  0  0  0  0  0
    2.1290    0.6629    2.0580 N   0  0  0  0  0  0  0  0  0  0  0  0
    3.2095    1.3824    1.5828 N   0  0  0  0  0  0  0  0  0  0  0  0
   -1.4991   -0.7769   -0.7976 C   0  0  1  0  0  0  0  0  0  0  0  0
   -2.4864   -1.8472   -0.2766 C   0  0  2  0  0  0  0  0  0  0  0  0
   -0.3244   -0.6092    0.1764 C   0  0  0  0  0  0  0  0  0  0  0  0
    0.4386   -1.9237    0.4465 C   0  0  2  0  0  0  0  0  0  0  0  0
   -3.4082   -1.2853    0.8106 C   0  0  0  0  0  0  0  0  0  0  0  0
   -1.0043   -1.1131   -2.2110 C   0  0  0  0  0  0  0  0  0  0  0  0
   -1.7858   -3.0726    0.2522 C   0  0  0  0  0  0  0  0  0  0  0  0
   -0.4792   -3.1306    0.5693 C   0  0  0  0  0  0  0  0  0  0  0  0
   -4.6324    0.6885    1.4483 C   0  0  0  0  0  0  0  0  0  0  0  0
   -5.2125   -0.5036   -0.5807 C   0  0  0  0  0  0  0  0  0  0  0  0
   -6.4708    1.6168   -0.0195 C   0  0  0  0  0  0  0  0  0  0  0  0
   -5.3380    1.9539    0.9561 C   0  0  0  0  0  0  0  0  0  0  0  0
   -5.9373    0.7212   -1.1426 C   0  0  0  0  0  0  0  0  0  0  0  0
    1.3327   -1.7268    1.6771 C   0  0  0  0  0  0  0  0  0  0  0  0
   -2.0955   -0.8291   -3.2383 C   0  0  0  0  0  0  0  0  0  0  0  0
    0.2607   -0.3242   -2.5333 C   0  0  0  0  0  0  0  0  0  0  0  0
    0.1375   -4.4307    1.0072 C   0  0  0  0  0  0  0  0  0  0  0  0
   -7.1046    2.8855   -0.5835 C   0  0  0  0  0  0  0  0  0  0  0  0
    2.2268   -0.5303    1.5200 C   0  0  0  0  0  0  0  0  0  0  0  0
    3.8694    0.5633    0.7977 C   0  0  0  0  0  0  0  0  0  0  0  0
    5.0677    0.7665    0.0364 C   0  0  0  0  0  0  0  0  0  0  0  0
    5.7163    2.0010    0.0648 C   0  0  0  0  0  0  0  0  0  0  0  0
    5.5838   -0.2748   -0.7350 C   0  0  0  0  0  0  0  0  0  0  0  0
    6.8810    2.1942   -0.6781 C   0  0  0  0  0  0  0  0  0  0  0  0
    6.7485   -0.0816   -1.4779 C   0  0  0  0  0  0  0  0  0  0  0  0
    7.3971    1.1529   -1.4495 C   0  0  0  0  0  0  0  0  0  0  0  0
   -1.9900    0.2023   -0.8599 H   0  0  0  0  0  0  0  0  0  0  0  0
   -3.1041   -2.2091   -1.1038 H   0  0  0  0  0  0  0  0  0  0  0  0
   -0.7386   -0.2444    1.1277 H   0  0  0  0  0  0  0  0  0  0  0  0
    0.3463    0.1962   -0.1390 H   0  0  0  0  0  0  0  0  0  0  0  0
    1.0941   -2.1305   -0.4091 H   0  0  0  0  0  0  0  0  0  0  0  0
   -2.7974   -1.0167    1.6830 H   0  0  0  0  0  0  0  0  0  0  0  0
   -4.1092   -2.0536    1.1661 H   0  0  0  0  0  0  0  0  0  0  0  0
   -0.7496   -2.1776   -2.2874 H   0  0  0  0  0  0  0  0  0  0  0  0
   -2.4005   -3.9642    0.3570 H   0  0  0  0  0  0  0  0  0  0  0  0
   -3.8002    0.9975    2.0925 H   0  0  0  0  0  0  0  0  0  0  0  0
   -5.3212    0.0967    2.0655 H   0  0  0  0  0  0  0  0  0  0  0  0
   -5.9352   -1.1484   -0.0631 H   0  0  0  0  0  0  0  0  0  0  0  0
   -4.8343   -1.0676   -1.4382 H   0  0  0  0  0  0  0  0  0  0  0  0
   -7.2386    1.0653    0.5406 H   0  0  0  0  0  0  0  0  0  0  0  0
   -5.7280    2.5007    1.8227 H   0  0  0  0  0  0  0  0  0  0  0  0
   -4.6058    2.6112    0.4686 H   0  0  0  0  0  0  0  0  0  0  0  0
   -5.2488    1.2895   -1.7819 H   0  0  0  0  0  0  0  0  0  0  0  0
   -6.7654    0.3917   -1.7816 H   0  0  0  0  0  0  0  0  0  0  0  0
    1.9706   -2.6029    1.8432 H   0  0  0  0  0  0  0  0  0  0  0  0
    0.7243   -1.5997    2.5813 H   0  0  0  0  0  0  0  0  0  0  0  0
   -1.7279   -1.0223   -4.2524 H   0  0  0  0  0  0  0  0  0  0  0  0
   -2.9752   -1.4621   -3.0966 H   0  0  0  0  0  0  0  0  0  0  0  0
   -2.4197    0.2166   -3.1994 H   0  0  0  0  0  0  0  0  0  0  0  0
    1.1437   -0.6632   -1.9876 H   0  0  0  0  0  0  0  0  0  0  0  0
    0.5132   -0.4439   -3.5941 H   0  0  0  0  0  0  0  0  0  0  0  0
    0.1233    0.7496   -2.3633 H   0  0  0  0  0  0  0  0  0  0  0  0
    1.0249   -4.6521    0.4053 H   0  0  0  0  0  0  0  0  0  0  0  0
   -0.5523   -5.2739    0.8922 H   0  0  0  0  0  0  0  0  0  0  0  0
    0.4276   -4.3863    2.0614 H   0  0  0  0  0  0  0  0  0  0  0  0
   -7.9187    2.6385   -1.2727 H   0  0  0  0  0  0  0  0  0  0  0  0
   -6.3687    3.4991   -1.1139 H   0  0  0  0  0  0  0  0  0  0  0  0
   -8.0371    4.4386    0.1093 H   0  0  0  0  0  0  0  0  0  0  0  0
    5.1075   -1.2508   -0.7836 H   0  0  0  0  0  0  0  0  0  0  0  0
    7.3860    3.1554   -0.6557 H   0  0  0  0  0  0  0  0  0  0  0  0
    7.1506   -0.8921   -2.0788 H   0  0  0  0  0  0  0  0  0  0  0  0
    8.3039    1.3034   -2.0279 H   0  0  0  0  0  0  0  0  0  0  0  0
  1 28  1  0  0  0  0
  2 24  1  0  0  0  0
  2 64  1  0  0  0  0
  3 25  1  0  0  0  0
  3 26  1  0  0  0  0
  4 11  1  0  0  0  0
  4 15  1  0  0  0  0
  4 16  1  0  0  0  0
  5  6  1  0  0  0  0
  5 25  2  0  0  0  0
  6 26  2  0  0  0  0
  7  8  1  0  0  0  0
  7  9  1  0  0  0  0
  7 12  1  0  0  0  0
  7 33  1  0  0  0  0
  8 11  1  0  0  0  0
  8 13  1  0  0  0  0
  8 34  1  0  0  0  0
  9 10  1  0  0  0  0
  9 35  1  0  0  0  0
  9 36  1  0  0  0  0
 10 14  1  0  0  0  0
 10 20  1  0  0  0  0
 10 37  1  0  0  0  0
 11 38  1  0  0  0  0
 11 39  1  0  0  0  0
 12 21  1  0  0  0  0
 12 22  1  0  0  0  0
 12 40  1  0  0  0  0
 13 14  2  0  0  0  0
 13 41  1  0  0  0  0
 14 23  1  0  0  0  0
 15 18  1  0  0  0  0
 15 42  1  0  0  0  0
 15 43  1  0  0  0  0
 16 19  1  0  0  0  0
 16 44  1  0  0  0  0
 16 45  1  0  0  0  0
 17 18  1  0  0  0  0
 17 19  1  0  0  0  0
 17 24  1  0  0  0  0
 17 46  1  0  0  0  0
 18 47  1  0  0  0  0
 18 48  1  0  0  0  0
 19 49  1  0  0  0  0
 19 50  1  0  0  0  0
 20 25  1  0  0  0  0
 20 51  1  0  0  0  0
 20 52  1  0  0  0  0
 21 53  1  0  0  0  0
 21 54  1  0  0  0  0
 21 55  1  0  0  0  0
 22 56  1  0  0  0  0
 22 57  1  0  0  0  0
 22 58  1  0  0  0  0
 23 59  1  0  0  0  0
 23 60  1  0  0  0  0
 23 61  1  0  0  0  0
 24 62  1  0  0  0  0
 24 63  1  0  0  0  0
 26 27  1  0  0  0  0
 27 28  1  0  0  0  0
 27 29  2  0  0  0  0
 28 30  2  0  0  0  0
 29 31  1  0  0  0  0
 29 65  1  0  0  0  0
 30 32  1  0  0  0  0
 30 66  1  0  0  0  0
 31 32  2  0  0  0  0
 31 67  1  0  0  0  0
 32 68  1  0  0  0  0
M  END
> <PUBCHEM_COMPOUND_CID>
38030984

> <PUBCHEM_CONFORMER_RMSD>
1

> <PUBCHEM_CONFORMER_DIVERSEORDER>
6
92
3
81
94
37
71
7
61
162
106
134
87
99
154
141
103
74
128
39
123
111
43
90
164
5
156
146
176
174
70
121
155
118
131
126
104
42
83
149
54
136
115
13
143
93
114
9
171
32
100
116
142
53
129
107
147
89
27
62
14
79
124
21
48
46
96
16
67
36
151
135
137
55
109
80
17
59
91
84
117
15
19
145
28
49
58
44
78
148
122
175
95
133
63
166
12
51
112
172
161
127
38
98
105
22
163
34
158
69
24
140
86
18
75
153
72
2
65
144
85
110
50
113
169
47
60
160
56
73
77
82
88
45
57
76
157
68
23
97
29
30
52
10
130
168
150
33
26
125
159
40
20
102
120
165
31
101
132
108
66
41
170
152
4
25
64
167
8
119
35
1
11
173
139
138

> <PUBCHEM_MMFF94_PARTIAL_CHARGES>
30
1 -0.19
10 0.14
11 0.27
13 -0.29
14 -0.28
15 0.27
16 0.27
2 -0.68
20 0.18
23 0.14
24 0.28
25 0.3
26 0.43
27 0.05
28 0.19
29 -0.15
3 -0.28
30 -0.15
31 -0.15
32 -0.15
4 -0.81
41 0.15
5 -0.34
6 -0.34
64 0.4
65 0.15
66 0.15
67 0.15
68 0.15
8 0.14

> <PUBCHEM_EFFECTIVE_ROTOR_COUNT>
9

> <PUBCHEM_PHARMACOPHORE_FEATURES>
8
1 2 acceptor
1 2 donor
1 4 cation
3 12 21 22 hydrophobe
5 3 5 6 25 26 rings
6 27 28 29 30 31 32 rings
6 4 15 16 17 18 19 rings
6 7 8 9 10 13 14 rings

> <PUBCHEM_HEAVY_ATOM_COUNT>
32

> <PUBCHEM_ATOM_DEF_STEREO_COUNT>
3

> <PUBCHEM_ATOM_UDEF_STEREO_COUNT>
0

> <PUBCHEM_BOND_DEF_STEREO_COUNT>
0

> <PUBCHEM_BOND_UDEF_STEREO_COUNT>
0

> <PUBCHEM_ISOTOPIC_ATOM_COUNT>
0

> <PUBCHEM_COMPONENT_COUNT>
1

> <PUBCHEM_CACTVS_TAUTO_COUNT>
1

> <PUBCHEM_CONFORMER_ID>
02444E8800000006

> <PUBCHEM_MMFF94_ENERGY>
57.4597

> <PUBCHEM_FEATURE_SELFOVERLAP>
40.597

> <PUBCHEM_SHAPE_FINGERPRINT>
10670039 82 17203613644972804697
10674148 151 18411419519264820524
11475781 23 18272087249698429712
11513181 2 11526301860474109828
11991303 11 17203038681985190503
1200032 147 18113337488035063114
12124843 1 17989483030995526677
12166972 35 13398630575912326554
12218070 45 13624110766746925257
12390115 104 18334857263835628691
13165053 103 12966589559236444253
13782708 43 12751226030881868585
13944108 23 18195526995676232280
14251751 18 10665228146679965371
14840074 17 17167858698936287270
14931854 50 17846497007038160185
14951699 99 17968377845355076909
15183329 4 17132122337945660216
15198563 99 17912912075471043103
15320295 40 13326576203484836076
15980000 95 17544755630152241842
17349148 13 13182476515803676114
190975 80 12540705833419353889
19377110 9 14129050418330709796
19958102 18 15410894076056449462
2026 5 11815897838721140573
20642791 268 17894352172795420007
20691028 202 18334857264009643364
20775438 99 10661804258976517477
21223535 225 18342731962367483936
21344244 181 12534759683780573349
21756936 100 18341040930156912026
38570 142 18343301453112446267
392239 28 14562813291268598080
3986486 107 17917998248013253788
4058900 60 18335707096287777459
439807 62 10375859789380041881
50009960 94 10666103392813386009
5252454 2 17969204776809592010
56638632 10 18188759652464130077
5718773 13 10303808778856747057
57527293 21 17240751857719436939
59682541 52 17203611467418688078
6328613 192 18411423938090063288
7970288 3 9583515426157027113
9689198 14 18187092749401016152
9896288 288 17896328089279660915
9980921 52 14618849747456173988

> <PUBCHEM_SHAPE_MULTIPOLES>
624.59
19.85
3.84
2.14
4.4
1.4
1.35
-24.86
2.89
-3.23
-1.29
0.17
0.25
-0.75

> <PUBCHEM_SHAPE_SELFOVERLAP>
1317.271

> <PUBCHEM_SHAPE_VOLUME>
353.7

> <PUBCHEM_COORDINATE_TYPE>
2
5
10

$$$$
