26742472
  -OEChem-12032416313D

 72 75  0     1  0  0  0  0  0999 V2000
   -5.8837    1.0962    1.8217 O   0  0  0  0  0  0  0  0  0  0  0  0
   -2.1647   -1.5543    2.1431 N   0  0  2  0  0  0  0  0  0  0  0  0
   -4.0856    1.1379    0.3562 N   0  0  0  0  0  0  0  0  0  0  0  0
    0.2145   -1.2419   -1.7381 N   0  0  0  0  0  0  0  0  0  0  0  0
    2.3413   -0.1676   -2.0986 N   0  0  0  0  0  0  0  0  0  0  0  0
    7.7247    1.3900    0.8572 N   0  0  0  0  0  0  0  0  0  0  0  0
   -1.7711   -2.6229   -0.1992 C   0  0  2  0  0  0  0  0  0  0  0  0
   -0.4214   -2.1790    0.4298 C   0  0  2  0  0  0  0  0  0  0  0  0
   -3.0773   -0.9389    1.1438 C   0  0  2  0  0  0  0  0  0  0  0  0
   -2.7189   -1.4078   -0.2828 C   0  0  0  0  0  0  0  0  0  0  0  0
   -2.4096   -3.6296    0.7817 C   0  0  0  0  0  0  0  0  0  0  0  0
   -0.7532   -1.3761    1.7201 C   0  0  0  0  0  0  0  0  0  0  0  0
   -2.4542   -3.0076    2.1884 C   0  0  0  0  0  0  0  0  0  0  0  0
   -3.1141    0.5872    1.2500 C   0  0  0  0  0  0  0  0  0  0  0  0
    0.5820   -1.4565   -0.4578 C   0  0  0  0  0  0  0  0  0  0  0  0
    1.7952   -1.0621    0.0682 C   0  0  0  0  0  0  0  0  0  0  0  0
   -5.4162    1.3540    0.7145 C   0  0  0  0  0  0  0  0  0  0  0  0
    2.6436   -0.4153   -0.8073 C   0  0  0  0  0  0  0  0  0  0  0  0
    1.1287   -0.6016   -2.4917 C   0  0  0  0  0  0  0  0  0  0  0  0
   -6.2560    1.9369   -0.4266 C   0  0  0  0  0  0  0  0  0  0  0  0
    3.9431    0.0467   -0.3815 C   0  0  0  0  0  0  0  0  0  0  0  0
   -6.3080    1.0010   -1.6469 C   0  0  0  0  0  0  0  0  0  0  0  0
   -5.7429    3.3430   -0.7990 C   0  0  0  0  0  0  0  0  0  0  0  0
    0.7594   -0.3477   -3.9141 C   0  0  0  0  0  0  0  0  0  0  0  0
   -6.8690   -0.3736   -1.3017 C   0  0  0  0  0  0  0  0  0  0  0  0
   -5.7095    4.3359    0.3562 C   0  0  0  0  0  0  0  0  0  0  0  0
    4.0486    0.9752    0.6541 C   0  0  0  0  0  0  0  0  0  0  0  0
    5.0937   -0.4359   -1.0054 C   0  0  0  0  0  0  0  0  0  0  0  0
    5.3044    1.4214    1.0656 C   0  0  0  0  0  0  0  0  0  0  0  0
    6.3495    0.0104   -0.5939 C   0  0  0  0  0  0  0  0  0  0  0  0
    6.4548    0.9389    0.4415 C   0  0  0  0  0  0  0  0  0  0  0  0
    7.8453    2.3549    1.9321 C   0  0  0  0  0  0  0  0  0  0  0  0
    8.9265    0.8889    0.2203 C   0  0  0  0  0  0  0  0  0  0  0  0
   -1.6345   -3.0827   -1.1836 H   0  0  0  0  0  0  0  0  0  0  0  0
    0.0964   -3.1022    0.7332 H   0  0  0  0  0  0  0  0  0  0  0  0
   -4.0970   -1.2870    1.3670 H   0  0  0  0  0  0  0  0  0  0  0  0
   -2.2480   -0.6088   -0.8661 H   0  0  0  0  0  0  0  0  0  0  0  0
   -3.6355   -1.6932   -0.8139 H   0  0  0  0  0  0  0  0  0  0  0  0
   -1.8317   -4.5609    0.8048 H   0  0  0  0  0  0  0  0  0  0  0  0
   -3.4229   -3.8840    0.4476 H   0  0  0  0  0  0  0  0  0  0  0  0
   -0.0959   -1.7135    2.5327 H   0  0  0  0  0  0  0  0  0  0  0  0
   -0.5315   -0.3088    1.6050 H   0  0  0  0  0  0  0  0  0  0  0  0
   -3.4386   -3.1798    2.6408 H   0  0  0  0  0  0  0  0  0  0  0  0
   -1.7356   -3.5093    2.8491 H   0  0  0  0  0  0  0  0  0  0  0  0
   -2.1530    1.0401    0.9866 H   0  0  0  0  0  0  0  0  0  0  0  0
   -3.3572    0.8909    2.2748 H   0  0  0  0  0  0  0  0  0  0  0  0
   -3.7762    1.3748   -0.5810 H   0  0  0  0  0  0  0  0  0  0  0  0
    2.0656   -1.2596    1.0988 H   0  0  0  0  0  0  0  0  0  0  0  0
   -7.2777    2.0451   -0.0371 H   0  0  0  0  0  0  0  0  0  0  0  0
   -5.3143    0.8784   -2.0927 H   0  0  0  0  0  0  0  0  0  0  0  0
   -6.9437    1.4534   -2.4179 H   0  0  0  0  0  0  0  0  0  0  0  0
   -6.3936    3.7538   -1.5813 H   0  0  0  0  0  0  0  0  0  0  0  0
   -4.7397    3.2835   -1.2377 H   0  0  0  0  0  0  0  0  0  0  0  0
    1.1161   -1.1705   -4.5405 H   0  0  0  0  0  0  0  0  0  0  0  0
   -0.3264   -0.2669   -4.0261 H   0  0  0  0  0  0  0  0  0  0  0  0
    1.2074    0.5852   -4.2701 H   0  0  0  0  0  0  0  0  0  0  0  0
   -6.9561   -0.9806   -2.2085 H   0  0  0  0  0  0  0  0  0  0  0  0
   -7.8645   -0.2899   -0.8543 H   0  0  0  0  0  0  0  0  0  0  0  0
   -6.2202   -0.9114   -0.6038 H   0  0  0  0  0  0  0  0  0  0  0  0
   -4.9895    4.0359    1.1234 H   0  0  0  0  0  0  0  0  0  0  0  0
   -5.4158    5.3259   -0.0072 H   0  0  0  0  0  0  0  0  0  0  0  0
   -6.6956    4.4245    0.8226 H   0  0  0  0  0  0  0  0  0  0  0  0
    3.1635    1.3675    1.1498 H   0  0  0  0  0  0  0  0  0  0  0  0
    5.0311   -1.1629   -1.8119 H   0  0  0  0  0  0  0  0  0  0  0  0
    5.3334    2.1447    1.8745 H   0  0  0  0  0  0  0  0  0  0  0  0
    7.2138   -0.3954   -1.1103 H   0  0  0  0  0  0  0  0  0  0  0  0
    7.4329    1.9596    2.8670 H   0  0  0  0  0  0  0  0  0  0  0  0
    7.3441    3.2955    1.6779 H   0  0  0  0  0  0  0  0  0  0  0  0
    8.8924    2.6059    2.1352 H   0  0  0  0  0  0  0  0  0  0  0  0
    9.0194   -0.1954    0.3476 H   0  0  0  0  0  0  0  0  0  0  0  0
    9.8297    1.3317    0.6548 H   0  0  0  0  0  0  0  0  0  0  0  0
    8.9415    1.1364   -0.8470 H   0  0  0  0  0  0  0  0  0  0  0  0
  1 17  2  0  0  0  0
  2  9  1  0  0  0  0
  2 12  1  0  0  0  0
  2 13  1  0  0  0  0
  3 14  1  0  0  0  0
  3 17  1  0  0  0  0
  3 47  1  0  0  0  0
  4 15  2  0  0  0  0
  4 19  1  0  0  0  0
  5 18  1  0  0  0  0
  5 19  2  0  0  0  0
  6 31  1  0  0  0  0
  6 32  1  0  0  0  0
  6 33  1  0  0  0  0
  7  8  1  0  0  0  0
  7 10  1  0  0  0  0
  7 11  1  0  0  0  0
  7 34  1  0  0  0  0
  8 12  1  0  0  0  0
  8 15  1  0  0  0  0
  8 35  1  0  0  0  0
  9 10  1  0  0  0  0
  9 14  1  0  0  0  0
  9 36  1  0  0  0  0
 10 37  1  0  0  0  0
 10 38  1  0  0  0  0
 11 13  1  0  0  0  0
 11 39  1  0  0  0  0
 11 40  1  0  0  0  0
 12 41  1  0  0  0  0
 12 42  1  0  0  0  0
 13 43  1  0  0  0  0
 13 44  1  0  0  0  0
 14 45  1  0  0  0  0
 14 46  1  0  0  0  0
 15 16  1  0  0  0  0
 16 18  2  0  0  0  0
 16 48  1  0  0  0  0
 17 20  1  0  0  0  0
 18 21  1  0  0  0  0
 19 24  1  0  0  0  0
 20 22  1  0  0  0  0
 20 23  1  0  0  0  0
 20 49  1  0  0  0  0
 21 27  2  0  0  0  0
 21 28  1  0  0  0  0
 22 25  1  0  0  0  0
 22 50  1  0  0  0  0
 22 51  1  0  0  0  0
 23 26  1  0  0  0  0
 23 52  1  0  0  0  0
 23 53  1  0  0  0  0
 24 54  1  0  0  0  0
 24 55  1  0  0  0  0
 24 56  1  0  0  0  0
 25 57  1  0  0  0  0
 25 58  1  0  0  0  0
 25 59  1  0  0  0  0
 26 60  1  0  0  0  0
 26 61  1  0  0  0  0
 26 62  1  0  0  0  0
 27 29  1  0  0  0  0
 27 63  1  0  0  0  0
 28 30  2  0  0  0  0
 28 64  1  0  0  0  0
 29 31  2  0  0  0  0
 29 65  1  0  0  0  0
 30 31  1  0  0  0  0
 30 66  1  0  0  0  0
 32 67  1  0  0  0  0
 32 68  1  0  0  0  0
 32 69  1  0  0  0  0
 33 70  1  0  0  0  0
 33 71  1  0  0  0  0
 33 72  1  0  0  0  0
M  END
> <PUBCHEM_COMPOUND_CID>
26742472

> <PUBCHEM_CONFORMER_RMSD>
1

> <PUBCHEM_CONFORMER_DIVERSEORDER>
1
148
76
152
106
82
103
133
118
86
91
64
19
96
123
63
68
75
124
140
105
73
147
122
33
128
121
112
29
62
40
87
111
28
14
47
49
94
159
119
25
135
144
81
117
16
57
129
93
85
97
113
149
51
18
60
61
72
65
98
23
69
89
151
80
30
4
132
77
115
141
154
104
6
109
48
70
12
101
126
157
130
26
137
156
88
146
39
7
92
131
150
143
27
50
44
43
155
11
46
34
138
127
79
114
32
100
9
20
5
71
8
55
120
116
139
52
136
78
59
36
41
21
134
2
145
74
22
10
56
66
108
95
35
58
42
15
17
13
84
54
107
142
110
31
125
99
90
158
67
3
153
53
102
24
83
37
45
38

> <PUBCHEM_MMFF94_PARTIAL_CHARGES>
31
1 -0.57
12 0.27
13 0.27
14 0.3
15 0.17
16 -0.15
17 0.57
18 0.31
19 0.48
2 -0.81
20 0.06
24 0.14
27 -0.15
28 -0.15
29 -0.15
3 -0.73
30 -0.15
31 0.1
32 0.37
33 0.37
4 -0.62
47 0.37
48 0.15
5 -0.62
6 -0.84
63 0.15
64 0.15
65 0.15
66 0.15
8 0.14
9 0.27

> <PUBCHEM_EFFECTIVE_ROTOR_COUNT>
10.2

> <PUBCHEM_PHARMACOPHORE_FEATURES>
11
1 1 acceptor
1 2 cation
1 25 hydrophobe
1 26 hydrophobe
1 3 donor
1 4 acceptor
1 6 cation
3 4 5 19 cation
6 21 27 28 29 30 31 rings
6 4 5 15 16 18 19 rings
8 2 7 8 9 10 11 12 13 rings

> <PUBCHEM_HEAVY_ATOM_COUNT>
33

> <PUBCHEM_ATOM_DEF_STEREO_COUNT>
3

> <PUBCHEM_ATOM_UDEF_STEREO_COUNT>
0

> <PUBCHEM_BOND_DEF_STEREO_COUNT>
0

> <PUBCHEM_BOND_UDEF_STEREO_COUNT>
0

> <PUBCHEM_ISOTOPIC_ATOM_COUNT>
0

> <PUBCHEM_COMPONENT_COUNT>
1

> <PUBCHEM_CACTVS_TAUTO_COUNT>
2

> <PUBCHEM_CONFORMER_ID>
01980EC800000001

> <PUBCHEM_MMFF94_ENERGY>
98.7137

> <PUBCHEM_FEATURE_SELFOVERLAP>
55.82

> <PUBCHEM_SHAPE_FINGERPRINT>
10554248 39 16271662122250992852
10577160 103 17916295224960833843
10985338 8 17828523385153662206
11135609 201 18265060142157698409
11720765 8 17263576405057939055
12107183 9 16877666789956457142
12422481 6 16733266725548118919
12539747 363 11241969261342849686
13103583 49 15864363474893843354
13540713 5 16445054125728748495
1361 4 9727367818243392524
13726171 33 17916026760226377785
13782708 43 7781514785375758068
13911987 19 16056605369586862250
14767858 380 14908180854420472374
14950920 106 15358566157897234577
15669420 48 17917706929714643319
18643901 69 9439410146169218435
19246450 95 15864342507301477557
19304671 126 17770507430792351677
21033648 29 18187090503111930277
21304303 282 18335416898797431875
21403212 168 16588015806454208591
23522609 53 16951430852448587278
2838139 119 18341892957384827557
3459 39 18186801353355988569
393628 179 18338223904089702769
393628 194 18336271167428798245
4366758 6 17967806138142589671
4938544 92 18337391647054290066
504843 32 16988565770628652358
5372103 7 18060136488523555057
57366028 249 14188435153053588930
6009941 240 18335702776088188994
6058803 2 16301228139386525470
6086070 43 16988272166932874266
6677587 24 17482811395737665373
6691757 9 17967816072074878499
6697151 62 17343243839610416086
999808 66 11602535425127129512

> <PUBCHEM_SHAPE_MULTIPOLES>
648.35
22.04
3.66
2.47
25.29
1.01
-1.71
22.91
4.28
-7.01
1.62
-0.1
-0.57
2.82

> <PUBCHEM_SHAPE_SELFOVERLAP>
1366.255

> <PUBCHEM_SHAPE_VOLUME>
361.1

> <PUBCHEM_COORDINATE_TYPE>
2
5
10

$$$$
