7142435
  -OEChem-12032416133D

 56 60  0     1  0  0  0  0  0999 V2000
   10.4255    1.1374   -0.0520 Cl  0  0  0  0  0  0  0  0  0  0  0  0
   -1.5032   -1.9735   -0.0942 O   0  0  0  0  0  0  0  0  0  0  0  0
    1.7534    1.9776    1.2182 O   0  0  0  0  0  0  0  0  0  0  0  0
   -4.2471   -0.2322   -2.3323 O   0  0  0  0  0  0  0  0  0  0  0  0
   -6.2654    0.4265   -0.9466 O   0  0  0  0  0  0  0  0  0  0  0  0
    0.0951    0.9071    0.0119 N   0  0  0  0  0  0  0  0  0  0  0  0
   -2.6485    0.6693   -0.9053 N   0  0  0  0  0  0  0  0  0  0  0  0
    0.7433   -1.9684    0.2703 N   0  0  0  0  0  0  0  0  0  0  0  0
   -0.2673   -0.0975   -0.9783 C   0  0  2  0  0  0  0  0  0  0  0  0
   -1.5294    0.2767   -1.7657 C   0  0  0  0  0  0  0  0  0  0  0  0
   -0.8989    1.9364    0.3185 C   0  0  0  0  0  0  0  0  0  0  0  0
   -2.3130    1.3749    0.3345 C   0  0  0  0  0  0  0  0  0  0  0  0
   -0.4174   -1.4016   -0.2110 C   0  0  0  0  0  0  0  0  0  0  0  0
    1.3812    1.0257    0.5302 C   0  0  0  0  0  0  0  0  0  0  0  0
    2.3640   -0.0611    0.2744 C   0  0  0  0  0  0  0  0  0  0  0  0
   -3.9541    0.3609   -1.2917 C   0  0  0  0  0  0  0  0  0  0  0  0
    2.0464   -1.4289    0.2625 C   0  0  0  0  0  0  0  0  0  0  0  0
    3.7140    0.3331    0.2230 C   0  0  0  0  0  0  0  0  0  0  0  0
   -5.0482    0.8027   -0.3508 C   0  0  0  0  0  0  0  0  0  0  0  0
    3.0910   -2.3701    0.2708 C   0  0  0  0  0  0  0  0  0  0  0  0
    4.7361   -0.6142    0.1818 C   0  0  0  0  0  0  0  0  0  0  0  0
    4.4249   -1.9670    0.2197 C   0  0  0  0  0  0  0  0  0  0  0  0
    6.1178   -0.1893    0.1248 C   0  0  0  0  0  0  0  0  0  0  0  0
    7.1130   -0.9721    0.7098 C   0  0  0  0  0  0  0  0  0  0  0  0
    6.4549    1.0038   -0.5148 C   0  0  0  0  0  0  0  0  0  0  0  0
   -7.3299    0.1772   -0.1087 C   0  0  0  0  0  0  0  0  0  0  0  0
    8.4450   -0.5620    0.6556 C   0  0  0  0  0  0  0  0  0  0  0  0
    7.7870    1.4140   -0.5692 C   0  0  0  0  0  0  0  0  0  0  0  0
    8.7822    0.6309    0.0160 C   0  0  0  0  0  0  0  0  0  0  0  0
   -7.4181    0.8518    1.0997 C   0  0  0  0  0  0  0  0  0  0  0  0
   -8.2941   -0.7443   -0.4885 C   0  0  0  0  0  0  0  0  0  0  0  0
   -8.4957    0.5988    1.9484 C   0  0  0  0  0  0  0  0  0  0  0  0
   -9.3718   -0.9971    0.3601 C   0  0  0  0  0  0  0  0  0  0  0  0
   -9.4726   -0.3256    1.5786 C   0  0  0  0  0  0  0  0  0  0  0  0
    0.5539   -0.2136   -1.6965 H   0  0  0  0  0  0  0  0  0  0  0  0
   -1.3216    1.1412   -2.4087 H   0  0  0  0  0  0  0  0  0  0  0  0
   -1.8317   -0.5467   -2.4224 H   0  0  0  0  0  0  0  0  0  0  0  0
   -0.8011    2.7123   -0.4509 H   0  0  0  0  0  0  0  0  0  0  0  0
   -0.6688    2.4030    1.2823 H   0  0  0  0  0  0  0  0  0  0  0  0
   -2.4269    0.6524    1.1514 H   0  0  0  0  0  0  0  0  0  0  0  0
   -3.0244    2.1869    0.5071 H   0  0  0  0  0  0  0  0  0  0  0  0
    0.6622   -2.9340    0.5802 H   0  0  0  0  0  0  0  0  0  0  0  0
    3.9468    1.3954    0.2618 H   0  0  0  0  0  0  0  0  0  0  0  0
   -5.0241    1.8915   -0.2466 H   0  0  0  0  0  0  0  0  0  0  0  0
   -4.8802    0.3020    0.6104 H   0  0  0  0  0  0  0  0  0  0  0  0
    2.8715   -3.4363    0.2804 H   0  0  0  0  0  0  0  0  0  0  0  0
    5.1812   -2.7457    0.1761 H   0  0  0  0  0  0  0  0  0  0  0  0
    6.8950   -1.8924    1.2447 H   0  0  0  0  0  0  0  0  0  0  0  0
    5.7177    1.6297   -1.0106 H   0  0  0  0  0  0  0  0  0  0  0  0
    9.2096   -1.1784    1.1215 H   0  0  0  0  0  0  0  0  0  0  0  0
    8.0363    2.3425   -1.0766 H   0  0  0  0  0  0  0  0  0  0  0  0
   -6.6911    1.5954    1.4107 H   0  0  0  0  0  0  0  0  0  0  0  0
   -8.2178   -1.2687   -1.4365 H   0  0  0  0  0  0  0  0  0  0  0  0
   -8.5777    1.1255    2.8948 H   0  0  0  0  0  0  0  0  0  0  0  0
  -10.1327   -1.7167    0.0721 H   0  0  0  0  0  0  0  0  0  0  0  0
  -10.3124   -0.5215    2.2388 H   0  0  0  0  0  0  0  0  0  0  0  0
  1 29  1  0  0  0  0
  2 13  2  0  0  0  0
  3 14  2  0  0  0  0
  4 16  2  0  0  0  0
  5 19  1  0  0  0  0
  5 26  1  0  0  0  0
  6  9  1  0  0  0  0
  6 11  1  0  0  0  0
  6 14  1  0  0  0  0
  7 10  1  0  0  0  0
  7 12  1  0  0  0  0
  7 16  1  0  0  0  0
  8 13  1  0  0  0  0
  8 17  1  0  0  0  0
  8 42  1  0  0  0  0
  9 10  1  0  0  0  0
  9 13  1  0  0  0  0
  9 35  1  0  0  0  0
 10 36  1  0  0  0  0
 10 37  1  0  0  0  0
 11 12  1  0  0  0  0
 11 38  1  0  0  0  0
 11 39  1  0  0  0  0
 12 40  1  0  0  0  0
 12 41  1  0  0  0  0
 14 15  1  0  0  0  0
 15 17  2  0  0  0  0
 15 18  1  0  0  0  0
 16 19  1  0  0  0  0
 17 20  1  0  0  0  0
 18 21  2  0  0  0  0
 18 43  1  0  0  0  0
 19 44  1  0  0  0  0
 19 45  1  0  0  0  0
 20 22  2  0  0  0  0
 20 46  1  0  0  0  0
 21 22  1  0  0  0  0
 21 23  1  0  0  0  0
 22 47  1  0  0  0  0
 23 24  2  0  0  0  0
 23 25  1  0  0  0  0
 24 27  1  0  0  0  0
 24 48  1  0  0  0  0
 25 28  2  0  0  0  0
 25 49  1  0  0  0  0
 26 30  2  0  0  0  0
 26 31  1  0  0  0  0
 27 29  2  0  0  0  0
 27 50  1  0  0  0  0
 28 29  1  0  0  0  0
 28 51  1  0  0  0  0
 30 32  1  0  0  0  0
 30 52  1  0  0  0  0
 31 33  2  0  0  0  0
 31 53  1  0  0  0  0
 32 34  2  0  0  0  0
 32 54  1  0  0  0  0
 33 34  1  0  0  0  0
 33 55  1  0  0  0  0
 34 56  1  0  0  0  0
M  END
> <PUBCHEM_COMPOUND_CID>
7142435

> <PUBCHEM_CONFORMER_RMSD>
0.8

> <PUBCHEM_CONFORMER_DIVERSEORDER>
1
70
24
65
12
77
34
33
13
60
50
73
54
4
45
47
35
59
9
51
67
23
46
82
66
16
37
68
31
63
42
78
43
40
36
57
7
21
79
22
48
75
5
3
69
27
15
81
28
52
25
74
17
71
6
39
44
38
64
58
10
2
56
19
80
18
72
62
53
30
32
20
29
14
8
41
76
11
26
61
49
55

> <PUBCHEM_MMFF94_PARTIAL_CHARGES>
45
1 -0.18
10 0.3
11 0.3
12 0.3
13 0.57
14 0.54
15 0.09
16 0.57
17 0.12
18 -0.15
19 0.34
2 -0.57
20 -0.15
22 -0.15
24 -0.15
25 -0.15
26 0.08
27 -0.15
28 -0.15
29 0.18
3 -0.57
30 -0.15
31 -0.15
32 -0.15
33 -0.15
34 -0.15
4 -0.57
42 0.37
43 0.15
46 0.15
47 0.15
48 0.15
49 0.15
5 -0.36
50 0.15
51 0.15
52 0.15
53 0.15
54 0.15
55 0.15
56 0.15
6 -0.66
7 -0.66
8 -0.55
9 0.36

> <PUBCHEM_EFFECTIVE_ROTOR_COUNT>
6

> <PUBCHEM_PHARMACOPHORE_FEATURES>
10
1 2 acceptor
1 3 acceptor
1 4 acceptor
1 5 acceptor
1 8 donor
6 15 17 18 20 21 22 rings
6 23 24 25 27 28 29 rings
6 26 30 31 32 33 34 rings
6 6 7 9 10 11 12 rings
7 6 8 9 13 14 15 17 rings

> <PUBCHEM_HEAVY_ATOM_COUNT>
34

> <PUBCHEM_ATOM_DEF_STEREO_COUNT>
1

> <PUBCHEM_ATOM_UDEF_STEREO_COUNT>
0

> <PUBCHEM_BOND_DEF_STEREO_COUNT>
0

> <PUBCHEM_BOND_UDEF_STEREO_COUNT>
0

> <PUBCHEM_ISOTOPIC_ATOM_COUNT>
0

> <PUBCHEM_COMPONENT_COUNT>
1

> <PUBCHEM_CACTVS_TAUTO_COUNT>
3

> <PUBCHEM_CONFORMER_ID>
006CFC2300000001

> <PUBCHEM_MMFF94_ENERGY>
125.1043

> <PUBCHEM_FEATURE_SELFOVERLAP>
50.793

> <PUBCHEM_SHAPE_FINGERPRINT>
10 15 17748825215999869066
10076449 9 18113338609042976429
10100884 174 18197211676395597423
10162869 55 14129061422047614238
10209105 3 10375609088007829404
10299344 5 18272931626803373445
106641 1 17676207978537173895
10674148 151 16487252179770104730
10883706 142 16515680049386557656
11115154 58 16343984719749456114
11181472 205 14333139550106464754
12013929 94 18411419549313890691
13740195 50 17095524023915739696
13947947 74 18272366495524043968
14040221 8 14404911314745668648
14251764 18 18131349704970137813
14849402 71 18343021112376789441
15347591 1 18044649793819727813
15510794 2 17676483922466386847
15728490 51 18409166636866467983
15840311 113 17603308172516482756
16664035 7 13767924620202409734
16728433 110 18186521033583309317
17686467 74 17022901255284611541
18335252 98 18113617871926796322
18608769 82 18334574667967178179
20105231 36 18060140924944859830
21049683 271 18409728469522191964
21781055 127 15913063039801167817
21792965 68 13038918737922717187
22149856 69 17916586432191214218
23569917 315 18265895758047316802
249057 3 15841546396651239993
3092352 35 17917709106330016086
3178227 256 18411702084398054137
335352 9 18342733044081349846
335507 130 18186238446040679765
3552219 110 18131636668514912801
4093350 32 16271920554469892312
4112364 45 17531253906909307124
474113 269 10015595986765635388
5028188 123 16702014322445369780
5381727 24 17167856457854532114
57303763 176 9727096234407306207
57828716 8 13334733557117970256
59682541 35 17749391472645390195
6081469 158 12823300100387866474
6394761 36 12175620676759472141
6691757 9 16559026096467641749
67123 10 18040715870075172188
9962374 69 18040995207118122599

> <PUBCHEM_SHAPE_MULTIPOLES>
663.15
33.54
1.84
1.29
12.14
0.54
-0.19
-3.35
8.31
-1.7
0.24
2.72
-0.19
-0.72

> <PUBCHEM_SHAPE_SELFOVERLAP>
1453.772

> <PUBCHEM_SHAPE_VOLUME>
355.5

> <PUBCHEM_COORDINATE_TYPE>
2
5
10

$$$$
