75536531
  -OEChem-12032416313D

 51 52  0     1  0  0  0  0  0999 V2000
   -3.8638    1.9658   -1.0143 F   0  0  0  0  0  0  0  0  0  0  0  0
    1.3126    0.1250    0.0756 O   0  0  0  0  0  0  0  0  0  0  0  0
   -0.3114   -3.0784    0.1549 O   0  0  0  0  0  0  0  0  0  0  0  0
    3.6060    0.7521   -1.8150 O   0  0  0  0  0  0  0  0  0  0  0  0
   -2.2499   -0.6082    0.0251 N   0  0  0  0  0  0  0  0  0  0  0  0
    3.6935   -1.2958   -0.7200 N   0  0  0  0  0  0  0  0  0  0  0  0
   -0.8707   -0.7230    0.4705 C   0  0  1  0  0  0  0  0  0  0  0  0
   -0.0681   -1.7594   -0.2940 C   0  0  1  0  0  0  0  0  0  0  0  0
    1.3550   -1.3102    0.0088 C   0  0  1  0  0  0  0  0  0  0  0  0
   -0.0590    0.5359    0.2129 C   0  0  0  0  0  0  0  0  0  0  0  0
    2.3589   -1.7456   -1.0438 C   0  0  0  0  0  0  0  0  0  0  0  0
    5.7617    0.9094    0.6734 C   0  0  0  0  0  0  0  0  0  0  0  0
   -3.0529    0.1346    0.9890 C   0  0  0  0  0  0  0  0  0  0  0  0
    5.6343    0.1551   -0.6715 C   0  0  0  0  0  0  0  0  0  0  0  0
    4.2059   -0.0787   -1.1357 C   0  0  0  0  0  0  0  0  0  0  0  0
    5.0410    0.1633    1.8081 C   0  0  0  0  0  0  0  0  0  0  0  0
    7.2372    1.1130    1.0565 C   0  0  0  0  0  0  0  0  0  0  0  0
    5.1060    2.2944    0.5078 C   0  0  0  0  0  0  0  0  0  0  0  0
   -4.4816    0.2779    0.5363 C   0  0  0  0  0  0  0  0  0  0  0  0
   -4.8121    1.2006   -0.4560 C   0  0  0  0  0  0  0  0  0  0  0  0
   -5.4755   -0.5143    1.1110 C   0  0  0  0  0  0  0  0  0  0  0  0
   -6.1365    1.3313   -0.8738 C   0  0  0  0  0  0  0  0  0  0  0  0
   -6.8000   -0.3836    0.6933 C   0  0  0  0  0  0  0  0  0  0  0  0
   -7.1306    0.5391   -0.2991 C   0  0  0  0  0  0  0  0  0  0  0  0
   -0.8368   -0.9867    1.5371 H   0  0  0  0  0  0  0  0  0  0  0  0
   -0.2793   -1.7074   -1.3694 H   0  0  0  0  0  0  0  0  0  0  0  0
    1.6799   -1.6734    0.9927 H   0  0  0  0  0  0  0  0  0  0  0  0
   -0.3427    1.0305   -0.7233 H   0  0  0  0  0  0  0  0  0  0  0  0
   -0.1389    1.2642    1.0255 H   0  0  0  0  0  0  0  0  0  0  0  0
    2.0906   -1.3347   -2.0237 H   0  0  0  0  0  0  0  0  0  0  0  0
    2.3920   -2.8370   -1.1215 H   0  0  0  0  0  0  0  0  0  0  0  0
   -2.6441   -1.5434   -0.0818 H   0  0  0  0  0  0  0  0  0  0  0  0
    4.2691   -1.9095   -0.1510 H   0  0  0  0  0  0  0  0  0  0  0  0
   -2.6446    1.1413    1.1449 H   0  0  0  0  0  0  0  0  0  0  0  0
   -3.0299   -0.3613    1.9683 H   0  0  0  0  0  0  0  0  0  0  0  0
    6.1481   -0.8126   -0.6015 H   0  0  0  0  0  0  0  0  0  0  0  0
    6.1485    0.7082   -1.4685 H   0  0  0  0  0  0  0  0  0  0  0  0
   -0.1233   -3.1166    1.1079 H   0  0  0  0  0  0  0  0  0  0  0  0
    5.4221   -0.8588    1.9093 H   0  0  0  0  0  0  0  0  0  0  0  0
    5.1939    0.6692    2.7686 H   0  0  0  0  0  0  0  0  0  0  0  0
    3.9598    0.1093    1.6458 H   0  0  0  0  0  0  0  0  0  0  0  0
    7.3348    1.6726    1.9935 H   0  0  0  0  0  0  0  0  0  0  0  0
    7.7735    1.6673    0.2783 H   0  0  0  0  0  0  0  0  0  0  0  0
    7.7425    0.1497    1.1878 H   0  0  0  0  0  0  0  0  0  0  0  0
    5.2513    2.9042    1.4075 H   0  0  0  0  0  0  0  0  0  0  0  0
    5.5423    2.8433   -0.3343 H   0  0  0  0  0  0  0  0  0  0  0  0
    4.0255    2.2238    0.3445 H   0  0  0  0  0  0  0  0  0  0  0  0
   -5.2325   -1.2390    1.8835 H   0  0  0  0  0  0  0  0  0  0  0  0
   -6.3936    2.0497   -1.6465 H   0  0  0  0  0  0  0  0  0  0  0  0
   -7.5739   -1.0008    1.1403 H   0  0  0  0  0  0  0  0  0  0  0  0
   -8.1617    0.6407   -0.6245 H   0  0  0  0  0  0  0  0  0  0  0  0
  1 20  1  0  0  0  0
  2  9  1  0  0  0  0
  2 10  1  0  0  0  0
  3  8  1  0  0  0  0
  3 38  1  0  0  0  0
  4 15  2  0  0  0  0
  5  7  1  0  0  0  0
  5 13  1  0  0  0  0
  5 32  1  0  0  0  0
  6 11  1  0  0  0  0
  6 15  1  0  0  0  0
  6 33  1  0  0  0  0
  7  8  1  0  0  0  0
  7 10  1  0  0  0  0
  7 25  1  0  0  0  0
  8  9  1  0  0  0  0
  8 26  1  0  0  0  0
  9 11  1  0  0  0  0
  9 27  1  0  0  0  0
 10 28  1  0  0  0  0
 10 29  1  0  0  0  0
 11 30  1  0  0  0  0
 11 31  1  0  0  0  0
 12 14  1  0  0  0  0
 12 16  1  0  0  0  0
 12 17  1  0  0  0  0
 12 18  1  0  0  0  0
 13 19  1  0  0  0  0
 13 34  1  0  0  0  0
 13 35  1  0  0  0  0
 14 15  1  0  0  0  0
 14 36  1  0  0  0  0
 14 37  1  0  0  0  0
 16 39  1  0  0  0  0
 16 40  1  0  0  0  0
 16 41  1  0  0  0  0
 17 42  1  0  0  0  0
 17 43  1  0  0  0  0
 17 44  1  0  0  0  0
 18 45  1  0  0  0  0
 18 46  1  0  0  0  0
 18 47  1  0  0  0  0
 19 20  1  0  0  0  0
 19 21  2  0  0  0  0
 20 22  2  0  0  0  0
 21 23  1  0  0  0  0
 21 48  1  0  0  0  0
 22 24  1  0  0  0  0
 22 49  1  0  0  0  0
 23 24  2  0  0  0  0
 23 50  1  0  0  0  0
 24 51  1  0  0  0  0
M  END
> <PUBCHEM_COMPOUND_CID>
75536531

> <PUBCHEM_CONFORMER_RMSD>
1.2

> <PUBCHEM_CONFORMER_DIVERSEORDER>
1
109
49
74
112
46
80
28
40
103
63
36
45
88
13
106
12
16
33
91
37
92
61
75
43
105
77
73
60
57
85
35
76
65
44
89
94
114
95
86
23
56
64
102
100
98
4
72
24
90
15
69
111
67
108
29
84
93
82
39
51
117
116
30
83
31
81
9
42
68
58
48
10
104
66
71
32
38
50
59
96
70
79
22
54
20
101
34
47
17
14
78
52
113
7
25
110
41
55
18
5
99
115
53
21
119
8
26
87
27
62
19
107
118
97
11
3
6
2

> <PUBCHEM_MMFF94_PARTIAL_CHARGES>
27
1 -0.19
10 0.28
11 0.3
13 0.41
14 0.06
15 0.57
19 -0.14
2 -0.56
20 0.19
21 -0.15
22 -0.15
23 -0.15
24 -0.15
3 -0.68
32 0.36
33 0.37
38 0.4
4 -0.57
48 0.15
49 0.15
5 -0.9
50 0.15
51 0.15
6 -0.73
7 0.27
8 0.28
9 0.28

> <PUBCHEM_EFFECTIVE_ROTOR_COUNT>
9

> <PUBCHEM_PHARMACOPHORE_FEATURES>
10
1 2 acceptor
1 3 acceptor
1 3 donor
1 4 acceptor
1 5 cation
1 5 donor
1 6 donor
4 12 16 17 18 hydrophobe
5 2 7 8 9 10 rings
6 19 20 21 22 23 24 rings

> <PUBCHEM_HEAVY_ATOM_COUNT>
24

> <PUBCHEM_ATOM_DEF_STEREO_COUNT>
3

> <PUBCHEM_ATOM_UDEF_STEREO_COUNT>
0

> <PUBCHEM_BOND_DEF_STEREO_COUNT>
0

> <PUBCHEM_BOND_UDEF_STEREO_COUNT>
0

> <PUBCHEM_ISOTOPIC_ATOM_COUNT>
0

> <PUBCHEM_COMPONENT_COUNT>
1

> <PUBCHEM_CACTVS_TAUTO_COUNT>
2

> <PUBCHEM_CONFORMER_ID>
0480989300000001

> <PUBCHEM_MMFF94_ENERGY>
51.0223

> <PUBCHEM_FEATURE_SELFOVERLAP>
50.746

> <PUBCHEM_SHAPE_FINGERPRINT>
10 15 18259987106015440800
10299344 5 13758359964061692988
10638233 991 16559030493480281897
10835480 77 18337386033885728501
11128504 68 16630527314812519975
11646440 116 18343310274764724280
11719270 70 18260547796927392915
12236239 1 16702308919106150163
12596602 18 15357988901112597665
12778500 126 15936404516439256644
13533116 47 18130232545575554494
13673619 4 12107778602329999774
13914758 101 13551463757926206535
14251764 18 16153710938185739556
14347424 109 15285357340999275780
14461889 52 18260555549549136387
14528608 73 16774078466640544642
14681490 219 16630807703263064064
14767858 380 16989125357062900296
15183329 4 14764348240732734609
15352257 5 10159694707404245041
16079462 125 18408039606881494823
173720 79 17894630353057291418
20157964 124 17917996066712764150
20554085 129 17603298250751729769
20567600 254 18412826885041422546
20715895 44 18341895221128245088
21150785 3 16415476069182602245
21521721 280 18060143137063935547
220451 1 13758359951503566183
22149856 69 18267327382093592755
23016692 55 10807934868681588402
23035841 295 12319738055421662389
23081809 10 16343709785675925875
23424782 7 17775000245772198375
23559900 14 17417804093177922427
249999 5 18262797350779585906
2767999 5 18411138039011856712
2916195 48 18410573993757216491
312425 54 14635156771410257240
3472631 163 18271525403240093692
34797466 226 16773804687907787268
4072396 5 17676206862215097834
4325135 7 14836406930103672760
4340502 62 18410014329765448366
437815 12 8862940576493504671
439807 62 9655311336548792104
465052 167 8214141859118765472
5104073 3 18114750300763924969
54039377 194 12324502223080392152
543368 44 17846500323005742937

> <PUBCHEM_SHAPE_MULTIPOLES>
459.07
20.6
2
1.29
6.86
0.67
-0.02
-10.3
2.26
-1.05
-0.2
-0.9
-0.17
1.87

> <PUBCHEM_SHAPE_SELFOVERLAP>
941.129

> <PUBCHEM_SHAPE_VOLUME>
266.7

> <PUBCHEM_COORDINATE_TYPE>
2
5
10

$$$$
