26742362
  -OEChem-12032416373D

 66 70  0     1  0  0  0  0  0999 V2000
   -4.8479    1.1993   -2.0084 O   0  0  0  0  0  0  0  0  0  0  0  0
    6.3416   -0.8391    1.2736 O   0  0  0  0  0  0  0  0  0  0  0  0
   -3.8748   -1.2925    2.1255 O   0  0  0  0  0  0  0  0  0  0  0  0
   -4.6431    0.7889    1.6313 O   0  0  0  0  0  0  0  0  0  0  0  0
   -0.7722    2.9310   -0.8622 N   0  0  2  0  0  0  0  0  0  0  0  0
   -3.0750   -0.0264   -1.1483 N   0  0  0  0  0  0  0  0  0  0  0  0
    1.5457   -0.1892    1.5281 N   0  0  0  0  0  0  0  0  0  0  0  0
    3.4849   -1.4477    0.8475 N   0  0  0  0  0  0  0  0  0  0  0  0
   -0.2115    2.0759    1.5331 C   0  0  2  0  0  0  0  0  0  0  0  0
    1.0523    2.0318    0.6302 C   0  0  2  0  0  0  0  0  0  0  0  0
   -1.7645    1.9062   -0.4431 C   0  0  2  0  0  0  0  0  0  0  0  0
   -1.3334    1.2402    0.8813 C   0  0  0  0  0  0  0  0  0  0  0  0
   -0.6924    3.5427    1.5544 C   0  0  0  0  0  0  0  0  0  0  0  0
    0.5970    2.3598   -0.8206 C   0  0  0  0  0  0  0  0  0  0  0  0
   -0.8367    4.0496    0.1087 C   0  0  0  0  0  0  0  0  0  0  0  0
   -2.0341    0.8734   -1.5394 C   0  0  0  0  0  0  0  0  0  0  0  0
    1.9368    0.7948    0.6920 C   0  0  0  0  0  0  0  0  0  0  0  0
    3.0737    0.7317   -0.0876 C   0  0  0  0  0  0  0  0  0  0  0  0
    3.8167   -0.4251    0.0324 C   0  0  0  0  0  0  0  0  0  0  0  0
    2.3542   -1.2658    1.5560 C   0  0  0  0  0  0  0  0  0  0  0  0
   -4.4220    0.2104   -1.4174 C   0  0  0  0  0  0  0  0  0  0  0  0
    5.0288   -0.6147   -0.7280 C   0  0  0  0  0  0  0  0  0  0  0  0
   -5.3826   -0.8084   -0.9214 C   0  0  0  0  0  0  0  0  0  0  0  0
    1.9556   -2.3744    2.4704 C   0  0  0  0  0  0  0  0  0  0  0  0
    6.2513   -0.8154   -0.0871 C   0  0  0  0  0  0  0  0  0  0  0  0
    4.9667   -0.5953   -2.1213 C   0  0  0  0  0  0  0  0  0  0  0  0
   -5.4866   -1.1052    0.4375 C   0  0  0  0  0  0  0  0  0  0  0  0
   -6.1899   -1.4732   -1.8443 C   0  0  0  0  0  0  0  0  0  0  0  0
    7.4117   -0.9968   -0.8394 C   0  0  0  0  0  0  0  0  0  0  0  0
    6.1272   -0.7767   -2.8738 C   0  0  0  0  0  0  0  0  0  0  0  0
   -6.3981   -2.0668    0.8735 C   0  0  0  0  0  0  0  0  0  0  0  0
   -7.1015   -2.4350   -1.4083 C   0  0  0  0  0  0  0  0  0  0  0  0
    7.3497   -0.9774   -2.2329 C   0  0  0  0  0  0  0  0  0  0  0  0
   -4.6578   -0.4276    1.4260 C   0  0  0  0  0  0  0  0  0  0  0  0
   -7.2056   -2.7318   -0.0494 C   0  0  0  0  0  0  0  0  0  0  0  0
    7.6361   -1.0509    1.8318 C   0  0  0  0  0  0  0  0  0  0  0  0
   -0.0026    1.7275    2.5500 H   0  0  0  0  0  0  0  0  0  0  0  0
    1.7038    2.8516    0.9706 H   0  0  0  0  0  0  0  0  0  0  0  0
   -2.7199    2.4222   -0.2658 H   0  0  0  0  0  0  0  0  0  0  0  0
   -0.9924    0.2105    0.7281 H   0  0  0  0  0  0  0  0  0  0  0  0
   -2.1819    1.2000    1.5697 H   0  0  0  0  0  0  0  0  0  0  0  0
    0.0208    4.1716    2.0998 H   0  0  0  0  0  0  0  0  0  0  0  0
   -1.6537    3.6124    2.0779 H   0  0  0  0  0  0  0  0  0  0  0  0
    1.2953    3.0839   -1.2617 H   0  0  0  0  0  0  0  0  0  0  0  0
    0.6536    1.4819   -1.4745 H   0  0  0  0  0  0  0  0  0  0  0  0
   -1.7849    4.5894   -0.0039 H   0  0  0  0  0  0  0  0  0  0  0  0
   -0.0525    4.7834   -0.1171 H   0  0  0  0  0  0  0  0  0  0  0  0
   -1.1525    0.2599   -1.7505 H   0  0  0  0  0  0  0  0  0  0  0  0
   -2.3234    1.3742   -2.4707 H   0  0  0  0  0  0  0  0  0  0  0  0
   -2.8109   -0.8759   -0.6573 H   0  0  0  0  0  0  0  0  0  0  0  0
    3.3673    1.5448   -0.7410 H   0  0  0  0  0  0  0  0  0  0  0  0
    2.4769   -2.2698    3.4265 H   0  0  0  0  0  0  0  0  0  0  0  0
    0.8770   -2.3597    2.6561 H   0  0  0  0  0  0  0  0  0  0  0  0
    2.2116   -3.3451    2.0344 H   0  0  0  0  0  0  0  0  0  0  0  0
    4.0237   -0.4465   -2.6423 H   0  0  0  0  0  0  0  0  0  0  0  0
   -6.1176   -1.2526   -2.9062 H   0  0  0  0  0  0  0  0  0  0  0  0
    8.3968   -1.1581   -0.4158 H   0  0  0  0  0  0  0  0  0  0  0  0
    6.0788   -0.7630   -3.9587 H   0  0  0  0  0  0  0  0  0  0  0  0
   -6.4939   -2.3066    1.9295 H   0  0  0  0  0  0  0  0  0  0  0  0
   -7.7300   -2.9529   -2.1269 H   0  0  0  0  0  0  0  0  0  0  0  0
    8.2525   -1.1188   -2.8200 H   0  0  0  0  0  0  0  0  0  0  0  0
   -7.9159   -3.4800    0.2900 H   0  0  0  0  0  0  0  0  0  0  0  0
    7.5214   -1.0399    2.9209 H   0  0  0  0  0  0  0  0  0  0  0  0
    8.3244   -0.2371    1.5793 H   0  0  0  0  0  0  0  0  0  0  0  0
    8.0354   -2.0360    1.5672 H   0  0  0  0  0  0  0  0  0  0  0  0
   -3.3189   -0.8283    2.7871 H   0  0  0  0  0  0  0  0  0  0  0  0
  1 21  2  0  0  0  0
  2 25  1  0  0  0  0
  2 36  1  0  0  0  0
  3 34  1  0  0  0  0
  3 66  1  0  0  0  0
  4 34  2  0  0  0  0
  5 11  1  0  0  0  0
  5 14  1  0  0  0  0
  5 15  1  0  0  0  0
  6 16  1  0  0  0  0
  6 21  1  0  0  0  0
  6 50  1  0  0  0  0
  7 17  2  0  0  0  0
  7 20  1  0  0  0  0
  8 19  1  0  0  0  0
  8 20  2  0  0  0  0
  9 10  1  0  0  0  0
  9 12  1  0  0  0  0
  9 13  1  0  0  0  0
  9 37  1  0  0  0  0
 10 14  1  0  0  0  0
 10 17  1  0  0  0  0
 10 38  1  0  0  0  0
 11 12  1  0  0  0  0
 11 16  1  0  0  0  0
 11 39  1  0  0  0  0
 12 40  1  0  0  0  0
 12 41  1  0  0  0  0
 13 15  1  0  0  0  0
 13 42  1  0  0  0  0
 13 43  1  0  0  0  0
 14 44  1  0  0  0  0
 14 45  1  0  0  0  0
 15 46  1  0  0  0  0
 15 47  1  0  0  0  0
 16 48  1  0  0  0  0
 16 49  1  0  0  0  0
 17 18  1  0  0  0  0
 18 19  2  0  0  0  0
 18 51  1  0  0  0  0
 19 22  1  0  0  0  0
 20 24  1  0  0  0  0
 21 23  1  0  0  0  0
 22 25  1  0  0  0  0
 22 26  2  0  0  0  0
 23 27  1  0  0  0  0
 23 28  2  0  0  0  0
 24 52  1  0  0  0  0
 24 53  1  0  0  0  0
 24 54  1  0  0  0  0
 25 29  2  0  0  0  0
 26 30  1  0  0  0  0
 26 55  1  0  0  0  0
 27 31  2  0  0  0  0
 27 34  1  0  0  0  0
 28 32  1  0  0  0  0
 28 56  1  0  0  0  0
 29 33  1  0  0  0  0
 29 57  1  0  0  0  0
 30 33  2  0  0  0  0
 30 58  1  0  0  0  0
 31 35  1  0  0  0  0
 31 59  1  0  0  0  0
 32 35  2  0  0  0  0
 32 60  1  0  0  0  0
 33 61  1  0  0  0  0
 35 62  1  0  0  0  0
 36 63  1  0  0  0  0
 36 64  1  0  0  0  0
 36 65  1  0  0  0  0
M  END
> <PUBCHEM_COMPOUND_CID>
26742362

> <PUBCHEM_CONFORMER_RMSD>
1

> <PUBCHEM_CONFORMER_DIVERSEORDER>
13
96
193
112
165
52
65
11
186
33
88
99
72
73
146
68
185
199
168
133
139
144
202
97
59
122
141
150
145
203
156
113
164
187
56
142
115
47
111
94
135
184
190
110
75
151
118
48
92
91
134
57
36
108
77
197
176
158
183
85
54
123
125
93
167
22
189
188
14
87
174
166
100
63
66
45
192
170
83
34
124
161
171
131
24
30
172
120
196
162
86
5
80
29
79
109
178
26
82
129
17
74
12
89
181
95
198
128
61
37
38
154
200
163
173
51
23
180
136
119
169
182
138
42
130
116
25
41
19
70
46
71
157
90
148
126
98
40
143
179
177
6
160
4
2
67
114
105
152
20
53
18
64
84
121
50
101
9
117
155
149
107
60
104
81
15
153
140
49
1
194
39
195
159
44
16
55
43
175
28
62
78
191
21
201
10
58
132
106
35
8
32
69
102
27
103
127
147
76
7
3
137
31

> <PUBCHEM_MMFF94_PARTIAL_CHARGES>
43
1 -0.57
10 0.14
11 0.27
14 0.27
15 0.27
16 0.3
17 0.17
18 -0.15
19 0.31
2 -0.36
20 0.48
21 0.54
23 0.09
24 0.14
25 0.08
26 -0.15
27 0.09
28 -0.15
29 -0.15
3 -0.65
30 -0.15
31 -0.15
32 -0.15
33 -0.15
34 0.63
35 -0.15
36 0.28
4 -0.57
5 -0.81
50 0.37
51 0.15
55 0.15
56 0.15
57 0.15
58 0.15
59 0.15
6 -0.73
60 0.15
61 0.15
62 0.15
66 0.5
7 -0.62
8 -0.62

> <PUBCHEM_EFFECTIVE_ROTOR_COUNT>
9.2

> <PUBCHEM_PHARMACOPHORE_FEATURES>
13
1 1 acceptor
1 2 acceptor
1 3 acceptor
1 4 acceptor
1 5 cation
1 6 donor
1 7 acceptor
3 3 4 34 anion
3 7 8 20 cation
6 22 25 26 29 30 33 rings
6 23 27 28 31 32 35 rings
6 7 8 17 18 19 20 rings
8 5 9 10 11 12 13 14 15 rings

> <PUBCHEM_HEAVY_ATOM_COUNT>
36

> <PUBCHEM_ATOM_DEF_STEREO_COUNT>
3

> <PUBCHEM_ATOM_UDEF_STEREO_COUNT>
0

> <PUBCHEM_BOND_DEF_STEREO_COUNT>
0

> <PUBCHEM_BOND_UDEF_STEREO_COUNT>
0

> <PUBCHEM_ISOTOPIC_ATOM_COUNT>
0

> <PUBCHEM_COMPONENT_COUNT>
1

> <PUBCHEM_CACTVS_TAUTO_COUNT>
2

> <PUBCHEM_CONFORMER_ID>
01980E5A0000000D

> <PUBCHEM_MMFF94_ENERGY>
124.2046

> <PUBCHEM_FEATURE_SELFOVERLAP>
66.031

> <PUBCHEM_SHAPE_FINGERPRINT>
10319926 262 14404917920210534853
10928967 22 18270101488153225439
10939801 23 12823289135437288450
10952577 141 16734656478772097989
11103572 155 17344366453276069238
11135609 201 10665223762051541837
11377469 6 18411981360325915229
11672396 43 18115584830554442458
11991303 11 18046907070556395557
12124843 1 17385711505417848735
12128747 34 15195291906102107022
12677640 9 14332543679539905277
12988421 55 11167947935595868397
13150687 139 13190331340471827040
13631057 29 18334853883975532352
13673619 4 17561083592572027308
13690498 29 18186794786741059029
13782708 43 17703231685985239078
14068700 675 18334580148466903652
14251764 30 18131073727219477815
14767858 380 17967540064596595610
14904525 67 8213266648407433886
14931854 50 17967249793194956339
14950920 106 14045156611447440565
15082195 135 16515976959885069116
15320295 40 16443332162703957068
15669420 48 12252189598046876009
16994733 274 13623522498198410023
19246450 95 13038636085059013215
208703 8 18059575832388040371
21716022 299 18266189502717087437
23559900 14 17459178763846146429
25269216 80 18130522868295431380
2747138 104 18060701676344068868
2748736 6 8502652593049769695
2838139 119 13984661430300337868
3383291 50 18202282536978459039
3737641 26 17559684940440265214
3862424 121 17460891828490081491
393628 179 11458422474550621478
397638 26 9871751286606903590
4098825 35 16008753467909847401
42767 28 15719388469136400109
4330586 98 17095813225259379099
437815 12 18343304794770997899
474113 269 17346308350673707551
57816373 69 17845647196561774407
5912855 24 18196092136020458360
6058803 2 17609210157254790912
999808 66 17132117918128952990

> <PUBCHEM_SHAPE_MULTIPOLES>
697.46
21.69
3.43
2.5
6.21
3.22
-0.16
-22.3
-6.34
-3.6
0.45
1.73
-0.97
0.09

> <PUBCHEM_SHAPE_SELFOVERLAP>
1525.153

> <PUBCHEM_SHAPE_VOLUME>
371.9

> <PUBCHEM_COORDINATE_TYPE>
2
5
10

$$$$
