11884353
  -OEChem-12032416363D

 46 49  0     1  0  0  0  0  0999 V2000
   -5.4264   -0.6878   -1.0778 O   0  0  0  0  0  0  0  0  0  0  0  0
   -5.7911    1.8156    0.6349 O   0  0  0  0  0  0  0  0  0  0  0  0
   -8.0710   -0.8065   -0.2356 O   0  0  0  0  0  0  0  0  0  0  0  0
   -0.9876    1.0541   -0.8592 O   0  0  0  0  0  0  0  0  0  0  0  0
    4.9904   -1.3892   -0.2085 O   0  0  0  0  0  0  0  0  0  0  0  0
   -2.6597   -0.1061    0.2380 N   0  0  0  0  0  0  0  0  0  0  0  0
   -0.4984   -0.8710    0.3919 N   0  0  0  0  0  0  0  0  0  0  0  0
   -4.9260    0.6707    0.7967 C   0  0  1  0  0  0  0  0  0  0  0  0
   -5.7088   -0.5379    0.3246 C   0  0  1  0  0  0  0  0  0  0  0  0
   -3.7649    0.7594   -0.1699 C   0  0  2  0  0  0  0  0  0  0  0  0
   -7.1381   -0.1140    0.5631 C   0  0  1  0  0  0  0  0  0  0  0  0
   -4.3892    0.2315   -1.4536 C   0  0  0  0  0  0  0  0  0  0  0  0
   -7.0925    1.3615    0.2347 C   0  0  0  0  0  0  0  0  0  0  0  0
   -1.3310    0.1140   -0.1465 C   0  0  0  0  0  0  0  0  0  0  0  0
    0.9015   -1.0028    0.2392 C   0  0  0  0  0  0  0  0  0  0  0  0
    1.5545   -2.0573    0.8561 C   0  0  0  0  0  0  0  0  0  0  0  0
    1.5909   -0.0748   -0.5242 C   0  0  0  0  0  0  0  0  0  0  0  0
    2.9352   -2.1875    0.7054 C   0  0  0  0  0  0  0  0  0  0  0  0
    2.9715   -0.2050   -0.6750 C   0  0  0  0  0  0  0  0  0  0  0  0
    3.6437   -1.2613   -0.0601 C   0  0  0  0  0  0  0  0  0  0  0  0
    5.7647   -0.2497   -0.0680 C   0  0  0  0  0  0  0  0  0  0  0  0
    5.5147    0.6088    0.9873 C   0  0  0  0  0  0  0  0  0  0  0  0
    6.7673    0.0012   -0.9871 C   0  0  0  0  0  0  0  0  0  0  0  0
    6.2939    1.7572    1.1284 C   0  0  0  0  0  0  0  0  0  0  0  0
    7.5465    1.1495   -0.8461 C   0  0  0  0  0  0  0  0  0  0  0  0
    7.3098    2.0275    0.2117 C   0  0  0  0  0  0  0  0  0  0  0  0
   -4.6362    0.6171    1.8508 H   0  0  0  0  0  0  0  0  0  0  0  0
   -5.4382   -1.4739    0.8212 H   0  0  0  0  0  0  0  0  0  0  0  0
   -3.3865    1.7771   -0.3095 H   0  0  0  0  0  0  0  0  0  0  0  0
   -7.3971   -0.2514    1.6192 H   0  0  0  0  0  0  0  0  0  0  0  0
   -4.8661    1.0422   -2.0157 H   0  0  0  0  0  0  0  0  0  0  0  0
   -3.6812   -0.2746   -2.1172 H   0  0  0  0  0  0  0  0  0  0  0  0
   -7.2211    1.5587   -0.8354 H   0  0  0  0  0  0  0  0  0  0  0  0
   -7.8589    1.9288    0.7713 H   0  0  0  0  0  0  0  0  0  0  0  0
   -2.8739   -0.9406    0.7754 H   0  0  0  0  0  0  0  0  0  0  0  0
   -7.7934   -0.7222   -1.1637 H   0  0  0  0  0  0  0  0  0  0  0  0
   -0.9460   -1.5824    0.9644 H   0  0  0  0  0  0  0  0  0  0  0  0
    1.0123   -2.7842    1.4544 H   0  0  0  0  0  0  0  0  0  0  0  0
    1.1432    0.7647   -1.0347 H   0  0  0  0  0  0  0  0  0  0  0  0
    3.4534   -3.0124    1.1867 H   0  0  0  0  0  0  0  0  0  0  0  0
    3.4949    0.5170   -1.2965 H   0  0  0  0  0  0  0  0  0  0  0  0
    4.7458    0.4088    1.7276 H   0  0  0  0  0  0  0  0  0  0  0  0
    6.9524   -0.6812   -1.8112 H   0  0  0  0  0  0  0  0  0  0  0  0
    6.1134    2.4382    1.9549 H   0  0  0  0  0  0  0  0  0  0  0  0
    8.3377    1.3599   -1.5598 H   0  0  0  0  0  0  0  0  0  0  0  0
    7.9174    2.9209    0.3221 H   0  0  0  0  0  0  0  0  0  0  0  0
  1  9  1  0  0  0  0
  1 12  1  0  0  0  0
  2  8  1  0  0  0  0
  2 13  1  0  0  0  0
  3 11  1  0  0  0  0
  3 36  1  0  0  0  0
  4 14  2  0  0  0  0
  5 20  1  0  0  0  0
  5 21  1  0  0  0  0
  6 10  1  0  0  0  0
  6 14  1  0  0  0  0
  6 35  1  0  0  0  0
  7 14  1  0  0  0  0
  7 15  1  0  0  0  0
  7 37  1  0  0  0  0
  8  9  1  0  0  0  0
  8 10  1  0  0  0  0
  8 27  1  0  0  0  0
  9 11  1  0  0  0  0
  9 28  1  0  0  0  0
 10 12  1  0  0  0  0
 10 29  1  0  0  0  0
 11 13  1  0  0  0  0
 11 30  1  0  0  0  0
 12 31  1  0  0  0  0
 12 32  1  0  0  0  0
 13 33  1  0  0  0  0
 13 34  1  0  0  0  0
 15 16  2  0  0  0  0
 15 17  1  0  0  0  0
 16 18  1  0  0  0  0
 16 38  1  0  0  0  0
 17 19  2  0  0  0  0
 17 39  1  0  0  0  0
 18 20  2  0  0  0  0
 18 40  1  0  0  0  0
 19 20  1  0  0  0  0
 19 41  1  0  0  0  0
 21 22  2  0  0  0  0
 21 23  1  0  0  0  0
 22 24  1  0  0  0  0
 22 42  1  0  0  0  0
 23 25  2  0  0  0  0
 23 43  1  0  0  0  0
 24 26  2  0  0  0  0
 24 44  1  0  0  0  0
 25 26  1  0  0  0  0
 25 45  1  0  0  0  0
 26 46  1  0  0  0  0
M  END
> <PUBCHEM_COMPOUND_CID>
11884353

> <PUBCHEM_CONFORMER_RMSD>
0.8

> <PUBCHEM_CONFORMER_DIVERSEORDER>
1
62
14
46
81
18
79
32
65
13
63
66
86
2
15
33
70
57
28
82
61
6
75
39
80
64
24
52
23
76
37
58
10
67
36
30
12
59
47
60
69
26
22
9
4
74
20
27
34
17
51
55
21
83
45
71
41
19
25
38
77
44
56
40
8
35
72
85
5
48
29
78
43
54
3
68
49
84
16
11
73
42
7
53
50
31

> <PUBCHEM_MMFF94_PARTIAL_CHARGES>
38
1 -0.56
10 0.3
11 0.28
12 0.28
13 0.28
14 0.69
15 0.12
16 -0.15
17 -0.15
18 -0.15
19 -0.15
2 -0.56
20 0.08
21 0.08
22 -0.15
23 -0.15
24 -0.15
25 -0.15
26 -0.15
3 -0.68
35 0.37
36 0.4
37 0.37
38 0.15
39 0.15
4 -0.57
40 0.15
41 0.15
42 0.15
43 0.15
44 0.15
45 0.15
46 0.15
5 -0.17
6 -0.73
7 -0.55
8 0.28
9 0.28

> <PUBCHEM_EFFECTIVE_ROTOR_COUNT>
7.2

> <PUBCHEM_PHARMACOPHORE_FEATURES>
12
1 1 acceptor
1 2 acceptor
1 3 acceptor
1 3 donor
1 4 acceptor
1 5 acceptor
1 6 donor
1 7 donor
5 1 8 9 10 12 rings
5 2 8 9 11 13 rings
6 15 16 17 18 19 20 rings
6 21 22 23 24 25 26 rings

> <PUBCHEM_HEAVY_ATOM_COUNT>
26

> <PUBCHEM_ATOM_DEF_STEREO_COUNT>
4

> <PUBCHEM_ATOM_UDEF_STEREO_COUNT>
0

> <PUBCHEM_BOND_DEF_STEREO_COUNT>
0

> <PUBCHEM_BOND_UDEF_STEREO_COUNT>
0

> <PUBCHEM_ISOTOPIC_ATOM_COUNT>
0

> <PUBCHEM_COMPONENT_COUNT>
1

> <PUBCHEM_CACTVS_TAUTO_COUNT>
3

> <PUBCHEM_CONFORMER_ID>
00B5574100000001

> <PUBCHEM_MMFF94_ENERGY>
88.767

> <PUBCHEM_FEATURE_SELFOVERLAP>
61.673

> <PUBCHEM_SHAPE_FINGERPRINT>
10 15 16950284031497601572
10162869 55 17822008761653325439
10165383 225 18333734642248998428
10299344 5 17131833170466381319
10595046 47 18340206289383774467
10638233 991 17775846817742724208
10883706 142 18202558485048878658
11181472 205 17558839382366617649
11315181 36 18341896278243867017
11638347 137 16370720410241404072
11719270 70 13406792216450043592
11991303 11 15697990868668760556
12236239 1 18271806787442430823
125118 31 18410575041882880272
12516196 113 18335421249102625173
12592606 108 9655573011145889400
12596602 18 18272090461684893155
12730499 353 18410857642874128442
12838862 33 17168134655787221067
13073987 5 16588579799757251907
13533116 47 17822849772153107170
13673619 4 12031791349123169354
13835254 42 18042120965054369700
13914758 101 7925638816926407127
14170010 4 18187366536808253748
14216079 64 9799700290018686360
14251752 14 14405189456337217680
14251764 18 18334013900046631589
14251764 46 11963390751938095941
14394314 77 18339085887373564409
14461889 52 17821734948397169842
14565420 104 18187079560279332114
14671636 106 18200311156497193383
14849402 71 18339645645469926376
14856354 85 16415478272975721869
14933364 13 18131914849145581609
15183329 4 11167944666850981860
15461852 350 16630517433264397485
16994733 274 18334011653568467425
17093844 174 17530685386742309621
20397935 70 13479127974709262152
20567600 234 17458344152536328140
21033648 29 17095799915630014831
21130935 74 18114182982613122467
21150785 3 17632860832134373195
21521721 280 18411419522979435418
21792961 116 14692580879626720590
220451 1 16558745698467795751
22224240 67 17894631465569930842
24771293 8 18187087255995666893
249057 25 12035734163091546079
28498 318 10159704581496511834
3004659 81 11024104339417895574
328311 84 11455885884503583213
34797466 226 17846222155111554966
4073 2 18333736839869865259
4093350 32 17704075088749753148
4325135 7 18343302573935302452
4340502 62 16298104272765473530
437795 51 18272369810489236184
445580 37 16630252428685056553
5085150 59 13262686936748110993
5104073 3 17605545548891250528
5265222 85 17131262583971671143
53794403 172 18190744335640850108
5758199 1 18334859419771645370
59682541 35 17967819374888638473
6394761 36 12391516382001059225
6438161 24 12391516352685569764
6441014 3 12618037647809331872
9689198 14 18060704991541869604

> <PUBCHEM_SHAPE_MULTIPOLES>
495.76
25.66
1.83
1.05
10.45
0.14
-0.09
-10.31
0.2
-2.07
0.47
-0.28
-0.11
-0.09

> <PUBCHEM_SHAPE_SELFOVERLAP>
1080.815

> <PUBCHEM_SHAPE_VOLUME>
269.5

> <PUBCHEM_COORDINATE_TYPE>
2
5
10

$$$$
