26743054
  -OEChem-12032416183D

 50 52  0     1  0  0  0  0  0999 V2000
    6.6051   -0.3395   -0.8945 S   0  0  0  0  0  0  0  0  0  0  0  0
    2.8741   -1.7624   -1.1377 O   0  0  0  0  0  0  0  0  0  0  0  0
   -5.3125   -1.1397   -0.7342 O   0  0  0  0  0  0  0  0  0  0  0  0
   -7.1709    1.1368   -0.0957 O   0  0  0  0  0  0  0  0  0  0  0  0
   -0.4484    2.3777   -0.2434 N   0  0  0  0  0  0  0  0  0  0  0  0
    3.4634   -1.2066    1.0405 N   0  0  0  0  0  0  0  0  0  0  0  0
   -3.9801   -1.4912   -0.9130 N   0  0  0  0  0  0  0  0  0  0  0  0
    0.3653   -0.4062   -0.7858 C   0  0  1  0  0  0  0  0  0  0  0  0
   -1.0870   -0.0152   -0.4222 C   0  0  2  0  0  0  0  0  0  0  0  0
    1.0750    0.8131   -1.3979 C   0  0  0  0  0  0  0  0  0  0  0  0
   -1.1351    1.2698    0.4216 C   0  0  0  0  0  0  0  0  0  0  0  0
    0.9502    2.0603   -0.5239 C   0  0  0  0  0  0  0  0  0  0  0  0
   -1.8554   -1.1416    0.2702 C   0  0  0  0  0  0  0  0  0  0  0  0
    1.1712   -0.9736    0.3889 C   0  0  0  0  0  0  0  0  0  0  0  0
   -3.3389   -0.9580    0.1308 C   0  0  0  0  0  0  0  0  0  0  0  0
    2.5773   -1.3620   -0.0153 C   0  0  0  0  0  0  0  0  0  0  0  0
   -4.2064   -0.2653    0.9930 C   0  0  0  0  0  0  0  0  0  0  0  0
   -5.4346   -0.4099    0.4040 C   0  0  0  0  0  0  0  0  0  0  0  0
    4.8734   -1.5055    0.9379 C   0  0  0  0  0  0  0  0  0  0  0  0
   -6.7865    0.0473    0.7474 C   0  0  0  0  0  0  0  0  0  0  0  0
    5.6762   -0.2997    0.5435 C   0  0  0  0  0  0  0  0  0  0  0  0
    5.7892    0.9068    1.1986 C   0  0  0  0  0  0  0  0  0  0  0  0
    6.6495    1.8106    0.5108 C   0  0  0  0  0  0  0  0  0  0  0  0
    7.1615    1.2603   -0.6436 C   0  0  0  0  0  0  0  0  0  0  0  0
   -8.4754    1.5939    0.2199 C   0  0  0  0  0  0  0  0  0  0  0  0
    0.3186   -1.1829   -1.5619 H   0  0  0  0  0  0  0  0  0  0  0  0
   -1.5901    0.2060   -1.3767 H   0  0  0  0  0  0  0  0  0  0  0  0
    0.6155    1.0252   -2.3735 H   0  0  0  0  0  0  0  0  0  0  0  0
    2.1318    0.6225   -1.6086 H   0  0  0  0  0  0  0  0  0  0  0  0
   -2.1713    1.5851    0.5748 H   0  0  0  0  0  0  0  0  0  0  0  0
   -0.7058    1.1063    1.4173 H   0  0  0  0  0  0  0  0  0  0  0  0
    1.5090    1.9389    0.4112 H   0  0  0  0  0  0  0  0  0  0  0  0
    1.4008    2.9085   -1.0512 H   0  0  0  0  0  0  0  0  0  0  0  0
   -1.5931   -1.2045    1.3335 H   0  0  0  0  0  0  0  0  0  0  0  0
   -1.5871   -2.1081   -0.1764 H   0  0  0  0  0  0  0  0  0  0  0  0
    0.7004   -1.8862    0.7722 H   0  0  0  0  0  0  0  0  0  0  0  0
    1.2021   -0.2583    1.2175 H   0  0  0  0  0  0  0  0  0  0  0  0
   -0.4939    3.2067    0.3485 H   0  0  0  0  0  0  0  0  0  0  0  0
   -3.9765    0.2592    1.9087 H   0  0  0  0  0  0  0  0  0  0  0  0
    3.1233   -0.8624    1.9337 H   0  0  0  0  0  0  0  0  0  0  0  0
    5.0094   -2.3349    0.2347 H   0  0  0  0  0  0  0  0  0  0  0  0
    5.2013   -1.8518    1.9244 H   0  0  0  0  0  0  0  0  0  0  0  0
   -7.4996   -0.7766    0.6244 H   0  0  0  0  0  0  0  0  0  0  0  0
   -6.8170    0.3733    1.7939 H   0  0  0  0  0  0  0  0  0  0  0  0
    5.2813    1.1348    2.1272 H   0  0  0  0  0  0  0  0  0  0  0  0
    6.8813    2.8133    0.8457 H   0  0  0  0  0  0  0  0  0  0  0  0
    7.8355    1.7213   -1.3516 H   0  0  0  0  0  0  0  0  0  0  0  0
   -8.7219    2.4227   -0.4493 H   0  0  0  0  0  0  0  0  0  0  0  0
   -8.5177    1.9563    1.2517 H   0  0  0  0  0  0  0  0  0  0  0  0
   -9.2099    0.7965    0.0704 H   0  0  0  0  0  0  0  0  0  0  0  0
  1 21  1  0  0  0  0
  1 24  1  0  0  0  0
  2 16  2  0  0  0  0
  3  7  1  0  0  0  0
  3 18  1  0  0  0  0
  4 20  1  0  0  0  0
  4 25  1  0  0  0  0
  5 11  1  0  0  0  0
  5 12  1  0  0  0  0
  5 38  1  0  0  0  0
  6 16  1  0  0  0  0
  6 19  1  0  0  0  0
  6 40  1  0  0  0  0
  7 15  2  0  0  0  0
  8  9  1  0  0  0  0
  8 10  1  0  0  0  0
  8 14  1  0  0  0  0
  8 26  1  0  0  0  0
  9 11  1  0  0  0  0
  9 13  1  0  0  0  0
  9 27  1  0  0  0  0
 10 12  1  0  0  0  0
 10 28  1  0  0  0  0
 10 29  1  0  0  0  0
 11 30  1  0  0  0  0
 11 31  1  0  0  0  0
 12 32  1  0  0  0  0
 12 33  1  0  0  0  0
 13 15  1  0  0  0  0
 13 34  1  0  0  0  0
 13 35  1  0  0  0  0
 14 16  1  0  0  0  0
 14 36  1  0  0  0  0
 14 37  1  0  0  0  0
 15 17  1  0  0  0  0
 17 18  2  0  0  0  0
 17 39  1  0  0  0  0
 18 20  1  0  0  0  0
 19 21  1  0  0  0  0
 19 41  1  0  0  0  0
 19 42  1  0  0  0  0
 20 43  1  0  0  0  0
 20 44  1  0  0  0  0
 21 22  2  0  0  0  0
 22 23  1  0  0  0  0
 22 45  1  0  0  0  0
 23 24  2  0  0  0  0
 23 46  1  0  0  0  0
 24 47  1  0  0  0  0
 25 48  1  0  0  0  0
 25 49  1  0  0  0  0
 25 50  1  0  0  0  0
M  END
> <PUBCHEM_COMPOUND_CID>
26743054

> <PUBCHEM_CONFORMER_RMSD>
1

> <PUBCHEM_CONFORMER_DIVERSEORDER>
1
206
146
201
24
113
22
180
57
81
129
190
27
121
50
70
19
135
16
212
61
85
91
32
199
42
141
173
144
133
169
55
40
77
56
83
25
162
71
218
128
64
185
97
149
150
132
216
120
63
181
125
148
82
30
168
17
197
73
5
101
152
127
159
145
167
179
58
102
103
118
172
99
111
29
158
214
157
37
205
90
46
153
41
4
147
9
140
188
171
112
62
52
89
134
151
60
174
12
155
75
67
122
95
87
109
108
15
160
23
198
211
189
200
79
74
142
88
161
183
7
208
119
166
26
222
164
182
106
154
194
94
210
203
139
192
78
117
219
104
130
156
44
170
33
21
66
92
126
176
165
31
8
124
11
47
116
28
110
204
35
138
202
187
107
54
213
137
20
178
221
196
175
48
80
220
100
191
115
136
76
131
163
186
14
209
68
53
65
10
207
45
2
177
34
39
193
105
49
143
98
184
43
72
69
93
6
59
38
215
84
36
217
51
123
195
18
96
13
3
114
86

> <PUBCHEM_MMFF94_PARTIAL_CHARGES>
28
1 -0.08
11 0.27
12 0.27
13 0.18
14 0.06
15 0.11
16 0.57
17 -0.15
18 -0.04
19 0.48
2 -0.57
20 0.46
21 -0.14
22 -0.15
23 -0.15
24 -0.11
25 0.28
3 -0.02
38 0.36
39 0.15
4 -0.56
40 0.37
45 0.15
46 0.15
47 0.15
5 -0.9
6 -0.73
7 -0.41

> <PUBCHEM_EFFECTIVE_ROTOR_COUNT>
10.2

> <PUBCHEM_PHARMACOPHORE_FEATURES>
9
1 2 acceptor
1 4 acceptor
1 5 cation
1 5 donor
1 6 donor
1 7 acceptor
5 1 21 22 23 24 rings
5 3 7 15 17 18 rings
6 5 8 9 10 11 12 rings

> <PUBCHEM_HEAVY_ATOM_COUNT>
25

> <PUBCHEM_ATOM_DEF_STEREO_COUNT>
2

> <PUBCHEM_ATOM_UDEF_STEREO_COUNT>
0

> <PUBCHEM_BOND_DEF_STEREO_COUNT>
0

> <PUBCHEM_BOND_UDEF_STEREO_COUNT>
0

> <PUBCHEM_ISOTOPIC_ATOM_COUNT>
0

> <PUBCHEM_COMPONENT_COUNT>
1

> <PUBCHEM_CACTVS_TAUTO_COUNT>
2

> <PUBCHEM_CONFORMER_ID>
0198110E00000001

> <PUBCHEM_MMFF94_ENERGY>
29.5449

> <PUBCHEM_FEATURE_SELFOVERLAP>
45.671

> <PUBCHEM_SHAPE_FINGERPRINT>
10066227 49 9367356932866758552
10613725 11 10809341144348861202
10906281 52 18335996327859249370
11374522 155 18046346599110645348
11991303 11 13829839253496244477
12516196 113 18335137609098374474
13533116 47 17968089782136158450
14251764 18 18334575755094791199
1454969 45 18272369775965934580
14840074 17 18342172302184405998
14849402 71 18188777270129898733
14955137 171 13686292525906164210
15183329 4 9511464446378706378
15301273 46 17846783992035469742
15461852 350 17132108066481382119
15849732 13 18202002136059245423
15927050 60 17546170062061889084
16120349 18 18410288142705080141
21298829 104 18272092648361459689
21315759 40 9583516534015593491
21315763 178 18335135393264904535
21521721 280 17312824900717187866
21792934 111 18262507109868530176
23536379 177 13407070401423717438
23559900 14 18263922296796538864
24771293 8 18266448996852334556
27425 322 14763762244855078610
3009799 131 17748826310804910507
347723 3 12684807810022495078
34797466 226 18060708295073216900
4325135 7 18408887335026553778
4340502 62 15936405650627056434
4463277 17 18409448085249974283
5104073 3 18042111073733461696
59755656 520 12967121701627022053
6328613 192 18273215309229926137

> <PUBCHEM_SHAPE_MULTIPOLES>
485.79
22.31
2.03
1.12
13.79
0.65
0.05
6.73
-3.02
-0.68
0.08
-0.81
-0.08
-0.29

> <PUBCHEM_SHAPE_SELFOVERLAP>
994.035

> <PUBCHEM_SHAPE_VOLUME>
282.2

> <PUBCHEM_COORDINATE_TYPE>
2
5
10

$$$$
