7682269
  -OEChem-12032416363D

 61 66  0     1  0  0  0  0  0999 V2000
    4.6321    1.3987   -2.3094 O   0  0  0  0  0  0  0  0  0  0  0  0
    1.0970   -2.6195   -0.1422 O   0  0  0  0  0  0  0  0  0  0  0  0
   -5.4727    0.2344    0.4734 O   0  0  0  0  0  0  0  0  0  0  0  0
    2.4331   -0.8465    1.5613 N   0  0  2  0  0  0  0  0  0  0  0  0
    3.1032    1.4498   -0.5362 N   0  0  0  0  0  0  0  0  0  0  0  0
   -4.6283    2.4356    0.4743 N   0  0  0  0  0  0  0  0  0  0  0  0
    3.8559    1.1825    1.9021 C   0  0  1  0  0  0  0  0  0  0  0  0
    1.4806    1.4600    1.3821 C   0  0  2  0  0  0  0  0  0  0  0  0
    2.6300    2.0247    2.2131 C   0  0  0  0  0  0  0  0  0  0  0  0
    3.5973   -0.2942    2.2632 C   0  0  0  0  0  0  0  0  0  0  0  0
    1.2393   -0.0169    1.7762 C   0  0  0  0  0  0  0  0  0  0  0  0
    4.2120    1.3701    0.4254 C   0  0  0  0  0  0  0  0  0  0  0  0
    1.7645    1.5839   -0.1176 C   0  0  0  0  0  0  0  0  0  0  0  0
    2.1879   -2.2299    1.9618 C   0  0  0  0  0  0  0  0  0  0  0  0
    0.7864    1.7960   -1.0360 C   0  0  0  0  0  0  0  0  0  0  0  0
    3.4784    1.4958   -1.8905 C   0  0  0  0  0  0  0  0  0  0  0  0
    1.1348    1.8447   -2.4433 C   0  0  0  0  0  0  0  0  0  0  0  0
    2.3878    1.6938   -2.8720 C   0  0  0  0  0  0  0  0  0  0  0  0
    1.0643   -2.8496    1.1823 C   0  0  0  0  0  0  0  0  0  0  0  0
   -0.6293    1.9632   -0.6414 C   0  0  0  0  0  0  0  0  0  0  0  0
    0.0080   -3.6074    1.5608 C   0  0  0  0  0  0  0  0  0  0  0  0
   -1.4542    0.8473   -0.5390 C   0  0  0  0  0  0  0  0  0  0  0  0
   -1.1265    3.2354   -0.3756 C   0  0  0  0  0  0  0  0  0  0  0  0
   -0.7024   -3.8882    0.3640 C   0  0  0  0  0  0  0  0  0  0  0  0
    0.0075   -3.2589   -0.6534 C   0  0  0  0  0  0  0  0  0  0  0  0
   -2.7893    1.0051   -0.1672 C   0  0  0  0  0  0  0  0  0  0  0  0
   -2.4616    3.3932   -0.0037 C   0  0  0  0  0  0  0  0  0  0  0  0
   -3.2930    2.2780    0.1006 C   0  0  0  0  0  0  0  0  0  0  0  0
   -1.8653   -4.6034    0.0285 C   0  0  0  0  0  0  0  0  0  0  0  0
   -0.3599   -3.2899   -1.9975 C   0  0  0  0  0  0  0  0  0  0  0  0
   -2.2605   -4.6523   -1.3153 C   0  0  0  0  0  0  0  0  0  0  0  0
   -1.5193   -4.0067   -2.3084 C   0  0  0  0  0  0  0  0  0  0  0  0
   -5.6052    1.4437    0.6319 C   0  0  0  0  0  0  0  0  0  0  0  0
   -6.9322    2.0272    1.0478 C   0  0  0  0  0  0  0  0  0  0  0  0
    4.7022    1.5275    2.5092 H   0  0  0  0  0  0  0  0  0  0  0  0
    0.5877    2.0341    1.6542 H   0  0  0  0  0  0  0  0  0  0  0  0
    2.8073    3.0804    1.9727 H   0  0  0  0  0  0  0  0  0  0  0  0
    2.3914    1.9740    3.2825 H   0  0  0  0  0  0  0  0  0  0  0  0
    4.4900   -0.8795    2.0098 H   0  0  0  0  0  0  0  0  0  0  0  0
    3.4611   -0.3733    3.3504 H   0  0  0  0  0  0  0  0  0  0  0  0
    0.9371   -0.0537    2.8324 H   0  0  0  0  0  0  0  0  0  0  0  0
    0.3901   -0.3896    1.1975 H   0  0  0  0  0  0  0  0  0  0  0  0
    4.7609    2.3162    0.3188 H   0  0  0  0  0  0  0  0  0  0  0  0
    4.9046    0.5848    0.0962 H   0  0  0  0  0  0  0  0  0  0  0  0
    1.9696   -2.2985    3.0356 H   0  0  0  0  0  0  0  0  0  0  0  0
    3.0844   -2.8346    1.7750 H   0  0  0  0  0  0  0  0  0  0  0  0
    0.3380    1.9986   -3.1651 H   0  0  0  0  0  0  0  0  0  0  0  0
    2.6383    1.7267   -3.9256 H   0  0  0  0  0  0  0  0  0  0  0  0
   -0.2392   -3.9281    2.5629 H   0  0  0  0  0  0  0  0  0  0  0  0
   -1.0778   -0.1496   -0.7529 H   0  0  0  0  0  0  0  0  0  0  0  0
   -0.4898    4.1133   -0.4521 H   0  0  0  0  0  0  0  0  0  0  0  0
   -3.3709    0.0956   -0.1100 H   0  0  0  0  0  0  0  0  0  0  0  0
   -2.8405    4.3910    0.2026 H   0  0  0  0  0  0  0  0  0  0  0  0
   -2.4514   -5.1100    0.7893 H   0  0  0  0  0  0  0  0  0  0  0  0
    0.2194   -2.7852   -2.7615 H   0  0  0  0  0  0  0  0  0  0  0  0
   -3.1580   -5.2016   -1.5881 H   0  0  0  0  0  0  0  0  0  0  0  0
   -1.8504   -4.0616   -3.3425 H   0  0  0  0  0  0  0  0  0  0  0  0
   -4.9190    3.3948    0.6523 H   0  0  0  0  0  0  0  0  0  0  0  0
   -6.8295    2.5252    2.0161 H   0  0  0  0  0  0  0  0  0  0  0  0
   -7.6766    1.2309    1.1346 H   0  0  0  0  0  0  0  0  0  0  0  0
   -7.2714    2.7490    0.2994 H   0  0  0  0  0  0  0  0  0  0  0  0
  1 16  2  0  0  0  0
  2 19  1  0  0  0  0
  2 25  1  0  0  0  0
  3 33  2  0  0  0  0
  4 10  1  0  0  0  0
  4 11  1  0  0  0  0
  4 14  1  0  0  0  0
  5 12  1  0  0  0  0
  5 13  1  0  0  0  0
  5 16  1  0  0  0  0
  6 28  1  0  0  0  0
  6 33  1  0  0  0  0
  6 58  1  0  0  0  0
  7  9  1  0  0  0  0
  7 10  1  0  0  0  0
  7 12  1  0  0  0  0
  7 35  1  0  0  0  0
  8  9  1  0  0  0  0
  8 11  1  0  0  0  0
  8 13  1  0  0  0  0
  8 36  1  0  0  0  0
  9 37  1  0  0  0  0
  9 38  1  0  0  0  0
 10 39  1  0  0  0  0
 10 40  1  0  0  0  0
 11 41  1  0  0  0  0
 11 42  1  0  0  0  0
 12 43  1  0  0  0  0
 12 44  1  0  0  0  0
 13 15  2  0  0  0  0
 14 19  1  0  0  0  0
 14 45  1  0  0  0  0
 14 46  1  0  0  0  0
 15 17  1  0  0  0  0
 15 20  1  0  0  0  0
 16 18  1  0  0  0  0
 17 18  2  0  0  0  0
 17 47  1  0  0  0  0
 18 48  1  0  0  0  0
 19 21  2  0  0  0  0
 20 22  2  0  0  0  0
 20 23  1  0  0  0  0
 21 24  1  0  0  0  0
 21 49  1  0  0  0  0
 22 26  1  0  0  0  0
 22 50  1  0  0  0  0
 23 27  2  0  0  0  0
 23 51  1  0  0  0  0
 24 25  1  0  0  0  0
 24 29  2  0  0  0  0
 25 30  2  0  0  0  0
 26 28  2  0  0  0  0
 26 52  1  0  0  0  0
 27 28  1  0  0  0  0
 27 53  1  0  0  0  0
 29 31  1  0  0  0  0
 29 54  1  0  0  0  0
 30 32  1  0  0  0  0
 30 55  1  0  0  0  0
 31 32  2  0  0  0  0
 31 56  1  0  0  0  0
 32 57  1  0  0  0  0
 33 34  1  0  0  0  0
 34 59  1  0  0  0  0
 34 60  1  0  0  0  0
 34 61  1  0  0  0  0
M  END
> <PUBCHEM_COMPOUND_CID>
7682269

> <PUBCHEM_CONFORMER_RMSD>
0.8

> <PUBCHEM_CONFORMER_DIVERSEORDER>
1
13
12
10
2
15
11
6
14
7
9
3
5
4
8

> <PUBCHEM_MMFF94_PARTIAL_CHARGES>
43
1 -0.57
10 0.27
11 0.27
12 0.3
13 -0.03
14 0.45
15 -0.03
16 0.62
17 -0.15
18 -0.14
19 -0.04
2 -0.28
20 0.03
21 -0.15
22 -0.15
23 -0.15
25 0.14
26 -0.15
27 -0.15
28 0.12
29 -0.15
3 -0.57
30 -0.15
31 -0.15
32 -0.15
33 0.57
34 0.06
4 -0.81
47 0.15
48 0.15
49 0.15
5 -0.47
50 0.15
51 0.15
52 0.15
53 0.15
54 0.15
55 0.15
56 0.15
57 0.15
58 0.37
6 -0.55
8 0.14

> <PUBCHEM_EFFECTIVE_ROTOR_COUNT>
6

> <PUBCHEM_PHARMACOPHORE_FEATURES>
11
1 1 acceptor
1 2 acceptor
1 3 acceptor
1 4 cation
1 6 donor
5 2 19 21 24 25 rings
6 20 22 23 26 27 28 rings
6 24 25 29 30 31 32 rings
6 4 7 8 9 10 11 rings
6 5 13 15 16 17 18 rings
6 5 7 8 9 12 13 rings

> <PUBCHEM_HEAVY_ATOM_COUNT>
34

> <PUBCHEM_ATOM_DEF_STEREO_COUNT>
2

> <PUBCHEM_ATOM_UDEF_STEREO_COUNT>
0

> <PUBCHEM_BOND_DEF_STEREO_COUNT>
0

> <PUBCHEM_BOND_UDEF_STEREO_COUNT>
0

> <PUBCHEM_ISOTOPIC_ATOM_COUNT>
0

> <PUBCHEM_COMPONENT_COUNT>
1

> <PUBCHEM_CACTVS_TAUTO_COUNT>
2

> <PUBCHEM_CONFORMER_ID>
007538DD00000001

> <PUBCHEM_MMFF94_ENERGY>
91.8507

> <PUBCHEM_FEATURE_SELFOVERLAP>
57.478

> <PUBCHEM_SHAPE_FINGERPRINT>
10064457 181 18267845260343945416
10764073 3 14172666541387999576
11513181 2 17988349421606648759
11578080 2 17055863660370609456
12156800 1 18268432506927171742
12202916 173 15811380964620887395
12788726 201 17688874554341995596
13383661 66 17552657858695977534
14114206 34 17394743107995407295
14863182 85 18335423409123346825
14918310 93 17751089024141194662
15324884 4 17250574753242060744
18681886 176 18188224168568512828
19301679 30 18115882794032025697
19315092 285 13087204717972656486
1979834 28 18336827468872247313
20775530 9 16970267337246640935
22956985 138 17900542277020134811
23559900 14 17904209131377290005
3052486 1 18120933064504382782
3493558 16 12259547769223152640
35225 105 18129947904490073706
394071 54 18053103918374442345
563151 248 18334568054250130352
6287921 2 18194114114850041267

> <PUBCHEM_SHAPE_MULTIPOLES>
667.15
8.93
6.69
2.62
11.94
9.52
-0.92
-9.3
3.05
5.57
-1.6
-2.98
0.2
-2.79

> <PUBCHEM_SHAPE_SELFOVERLAP>
1485.156

> <PUBCHEM_SHAPE_VOLUME>
349.2

> <PUBCHEM_COORDINATE_TYPE>
2
5
10

$$$$
