11866353
  -OEChem-12032416153D

 54 55  0     1  0  0  0  0  0999 V2000
   -2.3312   -1.5506    2.1867 O   0  0  0  0  0  0  0  0  0  0  0  0
   -0.1479   -3.6977   -1.1496 O   0  0  0  0  0  0  0  0  0  0  0  0
   -2.9804   -3.8135   -1.4164 O   0  0  0  0  0  0  0  0  0  0  0  0
   -3.8766    0.4545    2.3829 O   0  0  0  0  0  0  0  0  0  0  0  0
    2.1096   -0.7662    1.3108 O   0  0  0  0  0  0  0  0  0  0  0  0
   -3.6059    2.8238   -1.9555 O   0  0  0  0  0  0  0  0  0  0  0  0
    0.9110   -1.0331   -0.6475 N   0  0  0  0  0  0  0  0  0  0  0  0
   -3.7436    1.0058    0.1253 N   0  0  0  0  0  0  0  0  0  0  0  0
    3.0422   -0.1973   -0.7671 N   0  0  0  0  0  0  0  0  0  0  0  0
   -4.3494    4.4633   -0.5286 N   0  0  0  0  0  0  0  0  0  0  0  0
   -2.5433   -0.9022    0.9381 C   0  0  1  0  0  0  0  0  0  0  0  0
   -0.2901   -1.5589   -0.0364 C   0  0  1  0  0  0  0  0  0  0  0  0
   -1.2166   -0.4047    0.3608 C   0  0  0  0  0  0  0  0  0  0  0  0
   -0.9854   -2.5510   -0.9781 C   0  0  2  0  0  0  0  0  0  0  0  0
   -3.2345   -1.8726   -0.0176 C   0  0  0  0  0  0  0  0  0  0  0  0
   -2.3239   -3.0354   -0.4152 C   0  0  1  0  0  0  0  0  0  0  0  0
   -3.4507    0.2521    1.2488 C   0  0  0  0  0  0  0  0  0  0  0  0
    2.0424   -0.6697    0.0877 C   0  0  0  0  0  0  0  0  0  0  0  0
   -4.6141    2.1590    0.1517 C   0  0  2  0  0  0  0  0  0  0  0  0
   -6.0572    1.7619   -0.1161 C   0  0  0  0  0  0  0  0  0  0  0  0
   -4.1197    3.1521   -0.8887 C   0  0  0  0  0  0  0  0  0  0  0  0
    4.3326    0.2668   -0.4206 C   0  0  0  0  0  0  0  0  0  0  0  0
    5.1887    0.6992   -1.4203 C   0  0  0  0  0  0  0  0  0  0  0  0
    4.7142    0.2794    0.9111 C   0  0  0  0  0  0  0  0  0  0  0  0
    6.4615    1.1569   -1.0789 C   0  0  0  0  0  0  0  0  0  0  0  0
    5.9868    0.7371    1.2525 C   0  0  0  0  0  0  0  0  0  0  0  0
    6.8604    1.1758    0.2575 C   0  0  0  0  0  0  0  0  0  0  0  0
    8.2212    1.6651    0.6227 C   0  0  0  0  0  0  0  0  0  0  0  0
    0.0187   -2.0962    0.8701 H   0  0  0  0  0  0  0  0  0  0  0  0
   -1.3693    0.2345   -0.5176 H   0  0  0  0  0  0  0  0  0  0  0  0
   -0.7052    0.2217    1.1045 H   0  0  0  0  0  0  0  0  0  0  0  0
   -1.1263   -2.1050   -1.9712 H   0  0  0  0  0  0  0  0  0  0  0  0
   -4.1452   -2.2845    0.4383 H   0  0  0  0  0  0  0  0  0  0  0  0
   -3.5752   -1.3736   -0.9337 H   0  0  0  0  0  0  0  0  0  0  0  0
   -2.1615   -3.6942    0.4467 H   0  0  0  0  0  0  0  0  0  0  0  0
    0.9051   -0.8514   -1.6466 H   0  0  0  0  0  0  0  0  0  0  0  0
   -3.1731   -1.9409    2.4778 H   0  0  0  0  0  0  0  0  0  0  0  0
   -0.5196   -4.2287   -1.8739 H   0  0  0  0  0  0  0  0  0  0  0  0
   -2.4688   -4.6309   -1.5378 H   0  0  0  0  0  0  0  0  0  0  0  0
   -3.3714    0.7337   -0.7788 H   0  0  0  0  0  0  0  0  0  0  0  0
   -4.5468    2.6136    1.1473 H   0  0  0  0  0  0  0  0  0  0  0  0
    2.8233   -0.1830   -1.7601 H   0  0  0  0  0  0  0  0  0  0  0  0
   -6.4136    1.0460    0.6322 H   0  0  0  0  0  0  0  0  0  0  0  0
   -6.7157    2.6366   -0.0941 H   0  0  0  0  0  0  0  0  0  0  0  0
   -6.1625    1.2928   -1.1011 H   0  0  0  0  0  0  0  0  0  0  0  0
   -4.0781    5.2261   -1.1401 H   0  0  0  0  0  0  0  0  0  0  0  0
   -4.7935    4.7187    0.3475 H   0  0  0  0  0  0  0  0  0  0  0  0
    4.8880    0.6882   -2.4642 H   0  0  0  0  0  0  0  0  0  0  0  0
    4.0978   -0.0434    1.7368 H   0  0  0  0  0  0  0  0  0  0  0  0
    7.1337    1.4943   -1.8634 H   0  0  0  0  0  0  0  0  0  0  0  0
    6.2882    0.7458    2.2968 H   0  0  0  0  0  0  0  0  0  0  0  0
    8.2210    2.1286    1.6151 H   0  0  0  0  0  0  0  0  0  0  0  0
    8.5714    2.4244   -0.0849 H   0  0  0  0  0  0  0  0  0  0  0  0
    8.9318    0.8327    0.6241 H   0  0  0  0  0  0  0  0  0  0  0  0
  1 11  1  0  0  0  0
  1 37  1  0  0  0  0
  2 14  1  0  0  0  0
  2 38  1  0  0  0  0
  3 16  1  0  0  0  0
  3 39  1  0  0  0  0
  4 17  2  0  0  0  0
  5 18  2  0  0  0  0
  6 21  2  0  0  0  0
  7 12  1  0  0  0  0
  7 18  1  0  0  0  0
  7 36  1  0  0  0  0
  8 17  1  0  0  0  0
  8 19  1  0  0  0  0
  8 40  1  0  0  0  0
  9 18  1  0  0  0  0
  9 22  1  0  0  0  0
  9 42  1  0  0  0  0
 10 21  1  0  0  0  0
 10 46  1  0  0  0  0
 10 47  1  0  0  0  0
 11 13  1  0  0  0  0
 11 15  1  0  0  0  0
 11 17  1  0  0  0  0
 12 13  1  0  0  0  0
 12 14  1  0  0  0  0
 12 29  1  0  0  0  0
 13 30  1  0  0  0  0
 13 31  1  0  0  0  0
 14 16  1  0  0  0  0
 14 32  1  0  0  0  0
 15 16  1  0  0  0  0
 15 33  1  0  0  0  0
 15 34  1  0  0  0  0
 16 35  1  0  0  0  0
 19 20  1  0  0  0  0
 19 21  1  0  0  0  0
 19 41  1  0  0  0  0
 20 43  1  0  0  0  0
 20 44  1  0  0  0  0
 20 45  1  0  0  0  0
 22 23  2  0  0  0  0
 22 24  1  0  0  0  0
 23 25  1  0  0  0  0
 23 48  1  0  0  0  0
 24 26  2  0  0  0  0
 24 49  1  0  0  0  0
 25 27  2  0  0  0  0
 25 50  1  0  0  0  0
 26 27  1  0  0  0  0
 26 51  1  0  0  0  0
 27 28  1  0  0  0  0
 28 52  1  0  0  0  0
 28 53  1  0  0  0  0
 28 54  1  0  0  0  0
M  END
> <PUBCHEM_COMPOUND_CID>
11866353

> <PUBCHEM_CONFORMER_RMSD>
1

> <PUBCHEM_CONFORMER_DIVERSEORDER>
1
114
69
35
79
17
119
89
50
56
16
77
96
104
60
28
22
91
100
105
53
46
42
78
124
117
126
118
71
121
109
47
87
97
84
59
129
67
106
92
58
123
49
86
115
80
111
99
64
127
68
95
83
43
41
122
102
101
54
29
63
73
20
33
62
65
85
52
98
130
66
23
93
113
2
108
76
51
15
8
12
34
74
128
57
88
107
31
120
27
4
61
19
110
14
32
112
45
6
36
48
55
103
11
26
25
90
38
75
72
18
82
30
3
116
24
94
5
40
37
21
70
44
39
13
10
7
125
81
9

> <PUBCHEM_MMFF94_PARTIAL_CHARGES>
37
1 -0.68
10 -0.8
11 0.34
12 0.3
14 0.28
16 0.28
17 0.57
18 0.69
19 0.36
2 -0.68
21 0.57
22 0.12
23 -0.15
24 -0.15
25 -0.15
26 -0.15
27 -0.14
28 0.14
3 -0.68
36 0.37
37 0.4
38 0.4
39 0.4
4 -0.57
40 0.37
42 0.37
46 0.37
47 0.37
48 0.15
49 0.15
5 -0.57
50 0.15
51 0.15
6 -0.57
7 -0.73
8 -0.73
9 -0.55

> <PUBCHEM_EFFECTIVE_ROTOR_COUNT>
9.2

> <PUBCHEM_PHARMACOPHORE_FEATURES>
15
1 1 acceptor
1 1 donor
1 10 donor
1 2 acceptor
1 2 donor
1 3 acceptor
1 3 donor
1 4 acceptor
1 5 acceptor
1 6 acceptor
1 7 donor
1 8 donor
1 9 donor
6 11 12 13 14 15 16 rings
6 22 23 24 25 26 27 rings

> <PUBCHEM_HEAVY_ATOM_COUNT>
28

> <PUBCHEM_ATOM_DEF_STEREO_COUNT>
5

> <PUBCHEM_ATOM_UDEF_STEREO_COUNT>
0

> <PUBCHEM_BOND_DEF_STEREO_COUNT>
0

> <PUBCHEM_BOND_UDEF_STEREO_COUNT>
0

> <PUBCHEM_ISOTOPIC_ATOM_COUNT>
0

> <PUBCHEM_COMPONENT_COUNT>
1

> <PUBCHEM_CACTVS_TAUTO_COUNT>
12

> <PUBCHEM_CONFORMER_ID>
00B510F100000001

> <PUBCHEM_MMFF94_ENERGY>
70.9701

> <PUBCHEM_FEATURE_SELFOVERLAP>
76.206

> <PUBCHEM_SHAPE_FINGERPRINT>
10369192 42 18130517344999136689
10411042 1 17765147668110607639
105312 117 18342738498621243991
10554248 39 17275113804359717644
10838868 160 18268987584607518481
11101153 10 18048316944535349732
11135609 201 18269281162675020873
12107183 9 18190730939558375538
12760667 363 9151165442481665945
12895837 130 18334299811672350668
13911987 19 18201718406435837393
13947920 24 18342460300800357640
14294032 229 18342177765794158619
14950920 106 16661222471198830512
15183329 4 13830131685609474180
15513586 35 17829916551595062665
15803439 3 17131538450042658989
16120349 189 18261668173711748717
16992828 155 18333444348302047349
17844677 252 17772478030706926842
19309040 13 17840302221426511429
20771845 165 18269562645439228023
21033648 144 18059861649059631894
21033648 29 18337964389074191028
21302155 148 18260831462511452340
21401589 2 18188780418778685977
21756936 100 18113620118426781834
21859007 373 18191026703785180932
22122407 14 17677065623746570572
23081809 10 18115024229947364898
23523766 6 17190931078789268087
23559900 14 17559693750136153262
2838139 119 18339351964248219241
32027 91 17773052873530916590
3418910 222 17543918257810895876
376196 1 17974574585609667283
4015057 19 15697995293017558666
44249763 50 18201145655229915824
508706 21 18199453519123500064
5219985 13 18263925432587096445
5372103 7 17387672935604148117
57527585 103 14082100589167935933
6086070 43 17560790053401506274
6327066 14 18337667521435981413
6677587 24 17179639743523078149
6697151 62 16629975318270695022
7808743 9 18410008831885088237
9981440 41 18262806159993964531

> <PUBCHEM_SHAPE_MULTIPOLES>
521.09
18.02
4.23
1.59
32.92
0.22
0.37
16.89
1.1
-8.96
-2.32
-0.57
-0.05
0.82

> <PUBCHEM_SHAPE_SELFOVERLAP>
1086.148

> <PUBCHEM_SHAPE_VOLUME>
293.1

> <PUBCHEM_COORDINATE_TYPE>
2
5
10

$$$$
