11941477
  -OEChem-12032416153D

 43 46  0     1  0  0  0  0  0999 V2000
    6.3732    1.7469    0.2497 F   0  0  0  0  0  0  0  0  0  0  0  0
    4.5928    2.6313   -0.6175 F   0  0  0  0  0  0  0  0  0  0  0  0
    4.6827    2.2501    1.5215 F   0  0  0  0  0  0  0  0  0  0  0  0
   -5.3108   -1.4740    0.3623 O   0  0  0  0  0  0  0  0  0  0  0  0
   -1.4711    1.2260   -2.0246 O   0  0  0  0  0  0  0  0  0  0  0  0
   -3.2277    0.8978   -0.5768 N   0  0  0  0  0  0  0  0  0  0  0  0
   -4.6169    2.4056    1.7899 N   0  0  0  0  0  0  0  0  0  0  0  0
   -3.0889   -1.9407    0.1779 N   0  0  0  0  0  0  0  0  0  0  0  0
   -3.7860    0.3719    0.6560 C   0  0  1  0  0  0  0  0  0  0  0  0
   -5.0025    1.2672    0.9518 C   0  0  2  0  0  0  0  0  0  0  0  0
   -5.4193    1.7483   -0.4429 C   0  0  0  0  0  0  0  0  0  0  0  0
   -4.0997    1.8937   -1.1839 C   0  0  0  0  0  0  0  0  0  0  0  0
   -4.1460   -1.0716    0.3527 C   0  0  0  0  0  0  0  0  0  0  0  0
   -1.9654    0.6358   -1.0641 C   0  0  0  0  0  0  0  0  0  0  0  0
   -1.1716   -0.4358   -0.4086 C   0  0  0  0  0  0  0  0  0  0  0  0
   -1.7133   -1.6416    0.0685 C   0  0  0  0  0  0  0  0  0  0  0  0
    0.2249   -0.2690   -0.4389 C   0  0  0  0  0  0  0  0  0  0  0  0
   -0.8382   -2.6767    0.4420 C   0  0  0  0  0  0  0  0  0  0  0  0
    1.0762   -1.2901   -0.0196 C   0  0  0  0  0  0  0  0  0  0  0  0
    0.5448   -2.4994    0.4092 C   0  0  0  0  0  0  0  0  0  0  0  0
    2.5100   -1.0993   -0.0524 C   0  0  0  0  0  0  0  0  0  0  0  0
    3.0491    0.1732    0.1380 C   0  0  0  0  0  0  0  0  0  0  0  0
    3.3534   -2.1878   -0.2758 C   0  0  0  0  0  0  0  0  0  0  0  0
    4.4315    0.3570    0.1049 C   0  0  0  0  0  0  0  0  0  0  0  0
    4.7355   -2.0040   -0.3088 C   0  0  0  0  0  0  0  0  0  0  0  0
    5.2747   -0.7317   -0.1183 C   0  0  0  0  0  0  0  0  0  0  0  0
    5.0088    1.7171    0.3080 C   0  0  0  0  0  0  0  0  0  0  0  0
   -3.0471    0.3909    1.4661 H   0  0  0  0  0  0  0  0  0  0  0  0
   -5.8184    0.7339    1.4500 H   0  0  0  0  0  0  0  0  0  0  0  0
   -6.0031    2.6742   -0.4405 H   0  0  0  0  0  0  0  0  0  0  0  0
   -6.0306    0.9763   -0.9270 H   0  0  0  0  0  0  0  0  0  0  0  0
   -4.1889    1.7197   -2.2604 H   0  0  0  0  0  0  0  0  0  0  0  0
   -3.6497    2.8798   -1.0237 H   0  0  0  0  0  0  0  0  0  0  0  0
   -4.3273    2.0694    2.7073 H   0  0  0  0  0  0  0  0  0  0  0  0
   -5.4270    3.0043    1.9448 H   0  0  0  0  0  0  0  0  0  0  0  0
   -3.3266   -2.9292    0.2148 H   0  0  0  0  0  0  0  0  0  0  0  0
    0.6282    0.6589   -0.8395 H   0  0  0  0  0  0  0  0  0  0  0  0
   -1.2305   -3.6279    0.7973 H   0  0  0  0  0  0  0  0  0  0  0  0
    1.1623   -3.3217    0.7597 H   0  0  0  0  0  0  0  0  0  0  0  0
    2.4243    1.0386    0.3446 H   0  0  0  0  0  0  0  0  0  0  0  0
    2.9786   -3.1909   -0.4598 H   0  0  0  0  0  0  0  0  0  0  0  0
    5.3922   -2.8501   -0.4898 H   0  0  0  0  0  0  0  0  0  0  0  0
    6.3538   -0.6085   -0.1492 H   0  0  0  0  0  0  0  0  0  0  0  0
  1 27  1  0  0  0  0
  2 27  1  0  0  0  0
  3 27  1  0  0  0  0
  4 13  2  0  0  0  0
  5 14  2  0  0  0  0
  6  9  1  0  0  0  0
  6 12  1  0  0  0  0
  6 14  1  0  0  0  0
  7 10  1  0  0  0  0
  7 34  1  0  0  0  0
  7 35  1  0  0  0  0
  8 13  1  0  0  0  0
  8 16  1  0  0  0  0
  8 36  1  0  0  0  0
  9 10  1  0  0  0  0
  9 13  1  0  0  0  0
  9 28  1  0  0  0  0
 10 11  1  0  0  0  0
 10 29  1  0  0  0  0
 11 12  1  0  0  0  0
 11 30  1  0  0  0  0
 11 31  1  0  0  0  0
 12 32  1  0  0  0  0
 12 33  1  0  0  0  0
 14 15  1  0  0  0  0
 15 16  2  0  0  0  0
 15 17  1  0  0  0  0
 16 18  1  0  0  0  0
 17 19  2  0  0  0  0
 17 37  1  0  0  0  0
 18 20  2  0  0  0  0
 18 38  1  0  0  0  0
 19 20  1  0  0  0  0
 19 21  1  0  0  0  0
 20 39  1  0  0  0  0
 21 22  2  0  0  0  0
 21 23  1  0  0  0  0
 22 24  1  0  0  0  0
 22 40  1  0  0  0  0
 23 25  2  0  0  0  0
 23 41  1  0  0  0  0
 24 26  2  0  0  0  0
 24 27  1  0  0  0  0
 25 26  1  0  0  0  0
 25 42  1  0  0  0  0
 26 43  1  0  0  0  0
M  END
> <PUBCHEM_COMPOUND_CID>
11941477

> <PUBCHEM_CONFORMER_RMSD>
0.6

> <PUBCHEM_CONFORMER_DIVERSEORDER>
1
3
2
4

> <PUBCHEM_MMFF94_PARTIAL_CHARGES>
34
1 -0.34
10 0.27
12 0.3
13 0.57
14 0.54
15 0.09
16 0.12
17 -0.15
18 -0.15
2 -0.34
20 -0.15
22 -0.15
23 -0.15
24 -0.14
25 -0.15
26 -0.15
27 1.16
3 -0.34
34 0.36
35 0.36
36 0.37
37 0.15
38 0.15
39 0.15
4 -0.57
40 0.15
41 0.15
42 0.15
43 0.15
5 -0.57
6 -0.66
7 -0.99
8 -0.55
9 0.36

> <PUBCHEM_EFFECTIVE_ROTOR_COUNT>
2.8

> <PUBCHEM_PHARMACOPHORE_FEATURES>
9
1 4 acceptor
1 5 acceptor
1 7 cation
1 7 donor
1 8 donor
5 6 9 10 11 12 rings
6 15 16 17 18 19 20 rings
6 21 22 23 24 25 26 rings
7 6 8 9 13 14 15 16 rings

> <PUBCHEM_HEAVY_ATOM_COUNT>
27

> <PUBCHEM_ATOM_DEF_STEREO_COUNT>
2

> <PUBCHEM_ATOM_UDEF_STEREO_COUNT>
0

> <PUBCHEM_BOND_DEF_STEREO_COUNT>
0

> <PUBCHEM_BOND_UDEF_STEREO_COUNT>
0

> <PUBCHEM_ISOTOPIC_ATOM_COUNT>
0

> <PUBCHEM_COMPONENT_COUNT>
1

> <PUBCHEM_CACTVS_TAUTO_COUNT>
3

> <PUBCHEM_CONFORMER_ID>
00B6366500000001

> <PUBCHEM_MMFF94_ENERGY>
88.4395

> <PUBCHEM_FEATURE_SELFOVERLAP>
45.73

> <PUBCHEM_SHAPE_FINGERPRINT>
10 15 18040437685064567897
11370993 144 18339367366006191531
11405975 8 18409726236471000978
11595378 159 16660633030293127644
12390115 104 18411710888922768207
12403259 415 18187926132133617750
12422481 6 17675925369694469893
12788726 201 17131561552634995808
12925494 130 18118960283332094413
13544653 18 8358253765528870926
13785724 45 17907296547302172682
14790565 3 18409735040668206115
14848178 96 18413101754121061856
15163728 17 16199322962789034601
15196674 1 18409167705505988702
17349148 13 11023816275845626535
17844677 252 18340776974309622958
1813 80 16443346494086509062
20645477 56 18187925049786268686
21033648 144 18410283696938935468
21033648 29 17750225933135754301
21236236 1 18409729565213099551
21315764 268 18333728009421677558
21623110 236 18408608071736798821
22122407 14 17987247638083260393
23559900 14 18271244898800157958
23569914 2 17693042575359511976
2747138 104 18041577935196086483
2838139 119 18201718393134047865
2916195 48 18410008853555344010
335352 9 18410573938883218614
34797466 226 17846788394783500415
350125 39 18339082696195973627
3680242 22 18260822671155996256
392239 28 18335703793141109809
4073 2 18114187484081746242
469060 322 16805599291819221839
5104073 3 18333733494063591403
633830 44 18271239426426000910
7064713 232 18260553328765726901
7808743 9 18336541724333826434
9995097 60 18411136931406322470

> <PUBCHEM_SHAPE_MULTIPOLES>
507.14
14.48
3.07
1.1
5.4
0.12
-0.02
8.32
2.24
1.18
0.43
-0.92
0.7
0.81

> <PUBCHEM_SHAPE_SELFOVERLAP>
1129.011

> <PUBCHEM_SHAPE_VOLUME>
270.6

> <PUBCHEM_COORDINATE_TYPE>
2
5
10

$$$$
