75536549
  -OEChem-12032416343D

 44 46  0     1  0  0  0  0  0999 V2000
    2.6312   -1.0702    1.3955 O   0  0  0  0  0  0  0  0  0  0  0  0
    1.5455   -2.8959   -1.5016 O   0  0  0  0  0  0  0  0  0  0  0  0
    4.8370    1.0021    1.1211 O   0  0  0  0  0  0  0  0  0  0  0  0
    4.0206    0.0302   -0.8328 N   0  0  0  0  0  0  0  0  0  0  0  0
   -0.6873   -1.1943   -0.0890 N   0  0  0  0  0  0  0  0  0  0  0  0
   -5.0447    3.4996    0.1754 N   0  0  0  0  0  0  0  0  0  0  0  0
    4.1408    2.4383   -0.6071 C   0  0  0  0  0  0  0  0  0  0  0  0
    3.2982    3.4150    0.1437 C   0  0  0  0  0  0  0  0  0  0  0  0
    2.7742    2.7722   -1.1055 C   0  0  0  0  0  0  0  0  0  0  0  0
    2.9098   -1.8632    0.2296 C   0  0  1  0  0  0  0  0  0  0  0  0
    1.6662   -1.7771   -0.6448 C   0  0  2  0  0  0  0  0  0  0  0  0
    0.5730   -1.7236    0.4063 C   0  0  1  0  0  0  0  0  0  0  0  0
    4.1624   -1.3464   -0.4554 C   0  0  0  0  0  0  0  0  0  0  0  0
    1.2134   -0.8366    1.4615 C   0  0  0  0  0  0  0  0  0  0  0  0
    4.3715    1.0903   -0.0090 C   0  0  0  0  0  0  0  0  0  0  0  0
   -1.7757   -1.4741    0.8400 C   0  0  0  0  0  0  0  0  0  0  0  0
   -3.0867   -0.9184    0.3510 C   0  0  0  0  0  0  0  0  0  0  0  0
   -3.3466    0.4486    0.4493 C   0  0  0  0  0  0  0  0  0  0  0  0
   -4.0416   -1.7718   -0.2021 C   0  0  0  0  0  0  0  0  0  0  0  0
   -4.5612    0.9623   -0.0053 C   0  0  0  0  0  0  0  0  0  0  0  0
   -5.2561   -1.2581   -0.6570 C   0  0  0  0  0  0  0  0  0  0  0  0
   -5.5161    0.1088   -0.5584 C   0  0  0  0  0  0  0  0  0  0  0  0
   -4.8279    2.3624    0.0944 C   0  0  0  0  0  0  0  0  0  0  0  0
    4.9864    2.8449   -1.1517 H   0  0  0  0  0  0  0  0  0  0  0  0
    3.5717    4.4620    0.0949 H   0  0  0  0  0  0  0  0  0  0  0  0
    2.8564    3.1130    1.0856 H   0  0  0  0  0  0  0  0  0  0  0  0
    1.9746    2.0498   -0.9943 H   0  0  0  0  0  0  0  0  0  0  0  0
    2.6972    3.3863   -1.9946 H   0  0  0  0  0  0  0  0  0  0  0  0
    3.0869   -2.8945    0.5598 H   0  0  0  0  0  0  0  0  0  0  0  0
    1.6481   -0.8693   -1.2584 H   0  0  0  0  0  0  0  0  0  0  0  0
    0.4297   -2.7404    0.7988 H   0  0  0  0  0  0  0  0  0  0  0  0
    4.3797   -1.9221   -1.3607 H   0  0  0  0  0  0  0  0  0  0  0  0
    5.0184   -1.4302    0.2235 H   0  0  0  0  0  0  0  0  0  0  0  0
    1.0532    0.2295    1.2626 H   0  0  0  0  0  0  0  0  0  0  0  0
    0.8567   -1.0564    2.4722 H   0  0  0  0  0  0  0  0  0  0  0  0
    3.6570    0.2305   -1.7600 H   0  0  0  0  0  0  0  0  0  0  0  0
   -0.9006   -1.6285   -0.9875 H   0  0  0  0  0  0  0  0  0  0  0  0
   -1.5700   -1.0365    1.8253 H   0  0  0  0  0  0  0  0  0  0  0  0
   -1.8754   -2.5559    0.9981 H   0  0  0  0  0  0  0  0  0  0  0  0
    1.5425   -3.7003   -0.9556 H   0  0  0  0  0  0  0  0  0  0  0  0
   -2.5995    1.1115    0.8813 H   0  0  0  0  0  0  0  0  0  0  0  0
   -3.8521   -2.8385   -0.2873 H   0  0  0  0  0  0  0  0  0  0  0  0
   -5.9992   -1.9225   -1.0884 H   0  0  0  0  0  0  0  0  0  0  0  0
   -6.4674    0.4940   -0.9176 H   0  0  0  0  0  0  0  0  0  0  0  0
  1 10  1  0  0  0  0
  1 14  1  0  0  0  0
  2 11  1  0  0  0  0
  2 40  1  0  0  0  0
  3 15  2  0  0  0  0
  4 13  1  0  0  0  0
  4 15  1  0  0  0  0
  4 36  1  0  0  0  0
  5 12  1  0  0  0  0
  5 16  1  0  0  0  0
  5 37  1  0  0  0  0
  6 23  3  0  0  0  0
  7  8  1  0  0  0  0
  7  9  1  0  0  0  0
  7 15  1  0  0  0  0
  7 24  1  0  0  0  0
  8  9  1  0  0  0  0
  8 25  1  0  0  0  0
  8 26  1  0  0  0  0
  9 27  1  0  0  0  0
  9 28  1  0  0  0  0
 10 11  1  0  0  0  0
 10 13  1  0  0  0  0
 10 29  1  0  0  0  0
 11 12  1  0  0  0  0
 11 30  1  0  0  0  0
 12 14  1  0  0  0  0
 12 31  1  0  0  0  0
 13 32  1  0  0  0  0
 13 33  1  0  0  0  0
 14 34  1  0  0  0  0
 14 35  1  0  0  0  0
 16 17  1  0  0  0  0
 16 38  1  0  0  0  0
 16 39  1  0  0  0  0
 17 18  2  0  0  0  0
 17 19  1  0  0  0  0
 18 20  1  0  0  0  0
 18 41  1  0  0  0  0
 19 21  2  0  0  0  0
 19 42  1  0  0  0  0
 20 22  2  0  0  0  0
 20 23  1  0  0  0  0
 21 22  1  0  0  0  0
 21 43  1  0  0  0  0
 22 44  1  0  0  0  0
M  END
> <PUBCHEM_COMPOUND_CID>
75536549

> <PUBCHEM_CONFORMER_RMSD>
1

> <PUBCHEM_CONFORMER_DIVERSEORDER>
1
11
71
131
96
82
153
92
123
53
152
4
139
38
94
151
22
129
118
15
98
150
60
141
126
26
107
18
101
148
122
143
6
145
137
76
33
105
149
74
125
130
59
135
91
104
147
83
48
32
67
110
66
68
77
31
99
154
7
62
88
114
52
81
117
87
102
65
119
70
93
127
34
43
128
45
17
112
41
3
134
133
20
42
78
109
35
14
51
79
146
30
54
120
90
121
64
57
47
69
113
86
85
56
89
84
28
75
144
24
50
132
19
142
36
12
73
21
80
55
108
124
116
13
27
63
97
37
138
115
23
100
61
44
95
46
72
40
140
2
49
58
29
16
106
8
136
25
5
10
103
111
39
9

> <PUBCHEM_MMFF94_PARTIAL_CHARGES>
35
1 -0.56
10 0.28
11 0.28
12 0.27
13 0.3
14 0.28
15 0.63
16 0.41
17 -0.14
18 -0.15
19 -0.15
2 -0.68
20 0.07
21 -0.15
22 -0.15
23 0.48
24 0.1
25 0.1
26 0.1
27 0.1
28 0.1
3 -0.57
36 0.37
37 0.36
4 -0.73
40 0.4
41 0.15
42 0.15
43 0.15
44 0.15
5 -0.9
6 -0.56
7 -0.1
8 -0.2
9 -0.2

> <PUBCHEM_EFFECTIVE_ROTOR_COUNT>
8.6

> <PUBCHEM_PHARMACOPHORE_FEATURES>
10
1 1 acceptor
1 2 acceptor
1 2 donor
1 3 acceptor
1 4 donor
1 5 cation
1 5 donor
1 6 acceptor
5 1 10 11 12 14 rings
6 17 18 19 20 21 22 rings

> <PUBCHEM_HEAVY_ATOM_COUNT>
23

> <PUBCHEM_ATOM_DEF_STEREO_COUNT>
3

> <PUBCHEM_ATOM_UDEF_STEREO_COUNT>
0

> <PUBCHEM_BOND_DEF_STEREO_COUNT>
0

> <PUBCHEM_BOND_UDEF_STEREO_COUNT>
0

> <PUBCHEM_ISOTOPIC_ATOM_COUNT>
0

> <PUBCHEM_COMPONENT_COUNT>
1

> <PUBCHEM_CACTVS_TAUTO_COUNT>
2

> <PUBCHEM_CONFORMER_ID>
048098A500000001

> <PUBCHEM_MMFF94_ENERGY>
43.9956

> <PUBCHEM_FEATURE_SELFOVERLAP>
50.748

> <PUBCHEM_SHAPE_FINGERPRINT>
10763959 59 18410864248322443694
11089746 13 18259701186032870034
11101153 10 18410572933871095813
11273773 38 17907299854215877177
11796584 16 8718561531101244602
12403259 118 18411408518935833786
12633257 1 16009584836460801972
13103583 49 10953723474927119919
13885169 86 18126013659594266137
14251764 38 18336269032481112653
14429114 114 18267020733560205505
14528608 73 18411701027593746631
14739800 52 18263909077224754000
14848178 96 18114183085412313820
15142526 21 17896878961810431642
15238133 3 17895758525940824044
15475509 84 17173474789951509992
15961568 22 18260265286794888589
16760501 71 18336558140290000273
17844677 252 18410581669296784923
17959699 21 18410576171506186851
20567600 299 18342176691330278296
20567600 9 18261682536177227972
20715895 44 18411981321602137472
20775530 9 10230110683674970756
21315763 129 18410011048172797422
21475661 188 17896882252024398660
21709351 56 18341611486360634974
21860390 5 18340496590560424966
23559900 14 17915174611980111875
245318 6 17533512384559017012
2838139 119 18339080518542306372
3472631 163 18266458712078414181
34797466 226 18060146457194896847
474 4 18261391204108147946
5104073 3 17967534541184459187

> <PUBCHEM_SHAPE_MULTIPOLES>
440.78
13.79
3.9
1.1
9.41
3.25
-0.07
7.45
1.35
-1.14
0.56
-0.7
-0.31
-0.53

> <PUBCHEM_SHAPE_SELFOVERLAP>
922.16

> <PUBCHEM_SHAPE_VOLUME>
248.4

> <PUBCHEM_COORDINATE_TYPE>
2
5
10

$$$$
