56775547
  -OEChem-12032416383D

 45 47  0     0  0  0  0  0  0999 V2000
    0.8001   -3.9427    0.9282 O   0  0  0  0  0  0  0  0  0  0  0  0
   -3.9290   -0.7236    0.4521 O   0  0  0  0  0  0  0  0  0  0  0  0
    1.4409    2.2005    0.0142 O   0  0  0  0  0  0  0  0  0  0  0  0
   -5.2514    1.8534   -0.3563 O   0  0  0  0  0  0  0  0  0  0  0  0
    0.8794   -0.9794    0.2909 N   0  0  0  0  0  0  0  0  0  0  0  0
   -3.0866   -1.7418    0.0225 N   0  0  0  0  0  0  0  0  0  0  0  0
    0.1456   -2.1873   -0.0947 C   0  0  0  0  0  0  0  0  0  0  0  0
   -0.2304   -2.9569    1.1665 C   0  0  0  0  0  0  0  0  0  0  0  0
    1.1443   -3.3152   -0.3280 C   0  0  0  0  0  0  0  0  0  0  0  0
   -0.9090   -1.9253   -1.1258 C   0  0  0  0  0  0  0  0  0  0  0  0
    1.6708   -0.5138   -0.8481 C   0  0  0  0  0  0  0  0  0  0  0  0
   -2.0473   -1.1171   -0.5383 C   0  0  0  0  0  0  0  0  0  0  0  0
    2.8442    0.3074   -0.4255 C   0  0  0  0  0  0  0  0  0  0  0  0
   -2.1772    0.2817   -0.4922 C   0  0  0  0  0  0  0  0  0  0  0  0
   -3.3767    0.4766    0.1400 C   0  0  0  0  0  0  0  0  0  0  0  0
    2.6776    1.6291   -0.0126 C   0  0  0  0  0  0  0  0  0  0  0  0
    4.1176   -0.2614   -0.4471 C   0  0  0  0  0  0  0  0  0  0  0  0
   -4.1402    1.6695    0.5253 C   0  0  0  0  0  0  0  0  0  0  0  0
    3.7845    2.3824    0.3788 C   0  0  0  0  0  0  0  0  0  0  0  0
    5.2246    0.4918   -0.0559 C   0  0  0  0  0  0  0  0  0  0  0  0
    5.0580    1.8136    0.3572 C   0  0  0  0  0  0  0  0  0  0  0  0
    1.3632    3.5564    0.4498 C   0  0  0  0  0  0  0  0  0  0  0  0
   -6.0032    3.0020   -0.0009 C   0  0  0  0  0  0  0  0  0  0  0  0
   -0.0876   -2.4517    2.1277 H   0  0  0  0  0  0  0  0  0  0  0  0
   -1.2124   -3.4402    1.1682 H   0  0  0  0  0  0  0  0  0  0  0  0
    0.9117   -3.9823   -1.1655 H   0  0  0  0  0  0  0  0  0  0  0  0
    2.2164   -3.0981   -0.3496 H   0  0  0  0  0  0  0  0  0  0  0  0
   -1.3253   -2.8756   -1.4885 H   0  0  0  0  0  0  0  0  0  0  0  0
   -0.5245   -1.4246   -2.0215 H   0  0  0  0  0  0  0  0  0  0  0  0
    0.3146   -0.2192    0.6655 H   0  0  0  0  0  0  0  0  0  0  0  0
    1.0410    0.1031   -1.5034 H   0  0  0  0  0  0  0  0  0  0  0  0
    2.0298   -1.3153   -1.5046 H   0  0  0  0  0  0  0  0  0  0  0  0
   -1.5013    1.0381   -0.8631 H   0  0  0  0  0  0  0  0  0  0  0  0
    4.2642   -1.2907   -0.7637 H   0  0  0  0  0  0  0  0  0  0  0  0
   -4.5058    1.5602    1.5533 H   0  0  0  0  0  0  0  0  0  0  0  0
   -3.4961    2.5559    0.4833 H   0  0  0  0  0  0  0  0  0  0  0  0
    3.7326    3.4134    0.7110 H   0  0  0  0  0  0  0  0  0  0  0  0
    6.2161    0.0489   -0.0721 H   0  0  0  0  0  0  0  0  0  0  0  0
    5.9208    2.3990    0.6618 H   0  0  0  0  0  0  0  0  0  0  0  0
    1.6811    3.6647    1.4924 H   0  0  0  0  0  0  0  0  0  0  0  0
    1.9041    4.2291   -0.2245 H   0  0  0  0  0  0  0  0  0  0  0  0
    0.3082    3.8469    0.4084 H   0  0  0  0  0  0  0  0  0  0  0  0
   -6.8376    3.0982   -0.7009 H   0  0  0  0  0  0  0  0  0  0  0  0
   -5.3861    3.9031   -0.0701 H   0  0  0  0  0  0  0  0  0  0  0  0
   -6.4082    2.8996    1.0106 H   0  0  0  0  0  0  0  0  0  0  0  0
  1  8  1  0  0  0  0
  1  9  1  0  0  0  0
  2  6  1  0  0  0  0
  2 15  1  0  0  0  0
  3 16  1  0  0  0  0
  3 22  1  0  0  0  0
  4 18  1  0  0  0  0
  4 23  1  0  0  0  0
  5  7  1  0  0  0  0
  5 11  1  0  0  0  0
  5 30  1  0  0  0  0
  6 12  2  0  0  0  0
  7  8  1  0  0  0  0
  7  9  1  0  0  0  0
  7 10  1  0  0  0  0
  8 24  1  0  0  0  0
  8 25  1  0  0  0  0
  9 26  1  0  0  0  0
  9 27  1  0  0  0  0
 10 12  1  0  0  0  0
 10 28  1  0  0  0  0
 10 29  1  0  0  0  0
 11 13  1  0  0  0  0
 11 31  1  0  0  0  0
 11 32  1  0  0  0  0
 12 14  1  0  0  0  0
 13 16  1  0  0  0  0
 13 17  2  0  0  0  0
 14 15  2  0  0  0  0
 14 33  1  0  0  0  0
 15 18  1  0  0  0  0
 16 19  2  0  0  0  0
 17 20  1  0  0  0  0
 17 34  1  0  0  0  0
 18 35  1  0  0  0  0
 18 36  1  0  0  0  0
 19 21  1  0  0  0  0
 19 37  1  0  0  0  0
 20 21  2  0  0  0  0
 20 38  1  0  0  0  0
 21 39  1  0  0  0  0
 22 40  1  0  0  0  0
 22 41  1  0  0  0  0
 22 42  1  0  0  0  0
 23 43  1  0  0  0  0
 23 44  1  0  0  0  0
 23 45  1  0  0  0  0
M  END
> <PUBCHEM_COMPOUND_CID>
56775547

> <PUBCHEM_CONFORMER_RMSD>
0.8

> <PUBCHEM_CONFORMER_DIVERSEORDER>
2
107
65
237
221
154
194
222
105
19
193
88
204
184
133
111
87
80
42
18
189
138
48
198
236
21
213
176
156
63
211
177
28
92
26
91
208
128
171
155
220
181
159
110
139
164
203
103
60
27
52
183
90
162
114
73
123
201
174
230
77
15
149
70
95
218
97
46
157
84
89
86
185
234
75
121
101
172
168
202
182
61
152
72
55
49
173
225
192
104
165
226
35
197
219
38
17
69
196
24
6
126
118
134
153
44
16
30
124
106
81
136
98
54
119
96
195
53
82
148
223
31
143
147
140
67
62
41
71
117
22
57
102
209
179
99
163
216
50
178
212
228
175
191
76
122
231
158
47
10
235
36
180
116
233
100
130
43
4
132
151
199
229
33
227
34
186
74
58
137
120
200
207
112
45
217
66
150
8
187
32
161
9
85
13
170
37
232
29
206
141
68
205
51
108
160
127
78
7
125
5
146
3
14
145
142
83
11
129
224
169
94
131
23
93
59
109
190
79
115
135
20
167
56
214
144
166
12
25
188
64
113
215
40
210
1
39

> <PUBCHEM_MMFF94_PARTIAL_CHARGES>
29
1 -0.52
10 0.18
11 0.41
12 0.11
13 -0.14
14 -0.15
15 -0.04
16 0.08
17 -0.15
18 0.46
19 -0.15
2 -0.02
20 -0.15
21 -0.15
22 0.28
23 0.28
3 -0.36
30 0.36
33 0.15
34 0.15
37 0.15
38 0.15
39 0.15
4 -0.56
5 -0.84
6 -0.41
7 0.21
8 0.26
9 0.26

> <PUBCHEM_EFFECTIVE_ROTOR_COUNT>
8.8

> <PUBCHEM_PHARMACOPHORE_FEATURES>
9
1 1 acceptor
1 3 acceptor
1 4 acceptor
1 5 cation
1 5 donor
1 6 acceptor
4 1 7 8 9 rings
5 2 6 12 14 15 rings
6 13 16 17 19 20 21 rings

> <PUBCHEM_HEAVY_ATOM_COUNT>
23

> <PUBCHEM_ATOM_DEF_STEREO_COUNT>
0

> <PUBCHEM_ATOM_UDEF_STEREO_COUNT>
0

> <PUBCHEM_BOND_DEF_STEREO_COUNT>
0

> <PUBCHEM_BOND_UDEF_STEREO_COUNT>
0

> <PUBCHEM_ISOTOPIC_ATOM_COUNT>
0

> <PUBCHEM_COMPONENT_COUNT>
1

> <PUBCHEM_CACTVS_TAUTO_COUNT>
1

> <PUBCHEM_CONFORMER_ID>
0362537B00000002

> <PUBCHEM_MMFF94_ENERGY>
63.8228

> <PUBCHEM_FEATURE_SELFOVERLAP>
45.672

> <PUBCHEM_SHAPE_FINGERPRINT>
11578080 2 17314775323029407519
12107183 9 18335408068338383826
12403260 363 18267014153732975086
12769317 202 18339351973044005621
12925494 130 18410573951641532937
13402501 40 18410573955546473693
13878862 14 17900242123636829805
13965767 371 18040427763721561383
14178342 30 18040729086396703095
14251751 93 18340202007116822235
14251757 5 18193011511278855372
14251764 75 18341624702429029617
14466204 15 18410569574489440544
14790565 3 18408890667500007564
15196674 1 18341050804292169028
15238133 3 18335987558237599404
15295992 7 18194973069644194186
15420108 30 18269821077885292415
20832881 197 18266467503798016918
21033648 29 18340199799614805192
21041028 32 17832701271077124110
21279426 13 18343029874215042260
21475661 188 18412547600017978789
21524375 3 18336263547697333430
22182937 141 18267872867839855330
23558518 356 18122058964384780407
23845131 108 18260550005152564915
283562 15 18192422198705712791
2838139 119 18343297055139898957
3680242 22 18336827481456241464
392239 28 18119824753064117923
469060 322 16392410836187988624
474 4 18411418388775792203
5104073 3 18116444639961541417
59124914 9 18411419484055710736
59755656 215 18268155253855710478
6328613 192 18264775523080648124
633830 44 18341608222396187958
7226269 152 18131068268875311552
9709674 26 17981328103839470126
9981440 41 18335983155284438483

> <PUBCHEM_SHAPE_MULTIPOLES>
439.89
10.88
4.66
0.87
6.34
1.18
0.02
-11.73
0.15
0.74
1.06
0.01
0.41
0.31

> <PUBCHEM_SHAPE_SELFOVERLAP>
927.497

> <PUBCHEM_SHAPE_VOLUME>
249.8

> <PUBCHEM_COORDINATE_TYPE>
2
5
10

$$$$
