56775678
  -OEChem-12032416383D

 49 51  0     0  0  0  0  0  0999 V2000
   -0.4252   -2.9208   -0.1859 O   0  0  0  0  0  0  0  0  0  0  0  0
    2.7897   -0.1482   -1.4742 O   0  0  0  0  0  0  0  0  0  0  0  0
   -2.3568   -0.8363    1.0788 N   0  0  0  0  0  0  0  0  0  0  0  0
    1.4177    0.0693   -1.4347 N   0  0  0  0  0  0  0  0  0  0  0  0
   -1.0505   -0.9751    0.4299 C   0  0  0  0  0  0  0  0  0  0  0  0
   -3.0783    0.2813    0.4729 C   0  0  0  0  0  0  0  0  0  0  0  0
   -1.2037   -1.8668   -0.7970 C   0  0  0  0  0  0  0  0  0  0  0  0
   -0.3222   -2.1659    1.0429 C   0  0  0  0  0  0  0  0  0  0  0  0
   -3.6200   -0.1316   -0.9002 C   0  0  0  0  0  0  0  0  0  0  0  0
   -4.2110    0.7343    1.4005 C   0  0  0  0  0  0  0  0  0  0  0  0
   -0.3243    0.3282    0.2953 C   0  0  0  0  0  0  0  0  0  0  0  0
   -4.4464    0.9873   -1.5318 C   0  0  0  0  0  0  0  0  0  0  0  0
   -5.0362    1.8526    0.7660 C   0  0  0  0  0  0  0  0  0  0  0  0
   -5.5683    1.4498   -0.6064 C   0  0  0  0  0  0  0  0  0  0  0  0
    1.1104    0.1031   -0.1348 C   0  0  0  0  0  0  0  0  0  0  0  0
    2.2365   -0.0854    0.6849 C   0  0  0  0  0  0  0  0  0  0  0  0
    3.2657   -0.2386   -0.2060 C   0  0  0  0  0  0  0  0  0  0  0  0
    4.7081   -0.4694   -0.0625 C   0  0  0  0  0  0  0  0  0  0  0  0
    5.5513    0.7925    0.2922 C   0  0  0  0  0  0  0  0  0  0  0  0
    5.1446    1.3646    1.6523 C   0  0  0  0  0  0  0  0  0  0  0  0
    5.4189    1.8748   -0.7823 C   0  0  0  0  0  0  0  0  0  0  0  0
   -2.4821    1.1905    0.3708 H   0  0  0  0  0  0  0  0  0  0  0  0
   -2.2779   -0.6760    2.0835 H   0  0  0  0  0  0  0  0  0  0  0  0
   -0.7374   -1.5253   -1.7254 H   0  0  0  0  0  0  0  0  0  0  0  0
   -2.1893   -2.2775   -1.0371 H   0  0  0  0  0  0  0  0  0  0  0  0
   -0.8405   -2.6908    1.8554 H   0  0  0  0  0  0  0  0  0  0  0  0
    0.7181   -2.0618    1.3520 H   0  0  0  0  0  0  0  0  0  0  0  0
   -4.2359   -1.0363   -0.8215 H   0  0  0  0  0  0  0  0  0  0  0  0
   -2.8197   -0.3186   -1.6182 H   0  0  0  0  0  0  0  0  0  0  0  0
   -3.8042    1.0875    2.3564 H   0  0  0  0  0  0  0  0  0  0  0  0
   -4.8727   -0.1117    1.6297 H   0  0  0  0  0  0  0  0  0  0  0  0
   -0.3072    0.8829    1.2427 H   0  0  0  0  0  0  0  0  0  0  0  0
   -0.7548    0.9822   -0.4730 H   0  0  0  0  0  0  0  0  0  0  0  0
   -4.8714    0.6420   -2.4812 H   0  0  0  0  0  0  0  0  0  0  0  0
   -3.7936    1.8379   -1.7651 H   0  0  0  0  0  0  0  0  0  0  0  0
   -4.4185    2.7539    0.6686 H   0  0  0  0  0  0  0  0  0  0  0  0
   -5.8738    2.1102    1.4241 H   0  0  0  0  0  0  0  0  0  0  0  0
   -6.0957    2.2962   -1.0605 H   0  0  0  0  0  0  0  0  0  0  0  0
   -6.3009    0.6416   -0.4903 H   0  0  0  0  0  0  0  0  0  0  0  0
    2.2933   -0.1054    1.7633 H   0  0  0  0  0  0  0  0  0  0  0  0
    5.1051   -0.9006   -0.9908 H   0  0  0  0  0  0  0  0  0  0  0  0
    4.8722   -1.2292    0.7125 H   0  0  0  0  0  0  0  0  0  0  0  0
    6.6026    0.4835    0.3480 H   0  0  0  0  0  0  0  0  0  0  0  0
    4.1483    1.8168    1.6333 H   0  0  0  0  0  0  0  0  0  0  0  0
    5.1592    0.5885    2.4246 H   0  0  0  0  0  0  0  0  0  0  0  0
    5.8485    2.1470    1.9575 H   0  0  0  0  0  0  0  0  0  0  0  0
    4.4012    2.2743   -0.8417 H   0  0  0  0  0  0  0  0  0  0  0  0
    5.6883    1.4782   -1.7668 H   0  0  0  0  0  0  0  0  0  0  0  0
    6.0911    2.7123   -0.5658 H   0  0  0  0  0  0  0  0  0  0  0  0
  1  7  1  0  0  0  0
  1  8  1  0  0  0  0
  2  4  1  0  0  0  0
  2 17  1  0  0  0  0
  3  5  1  0  0  0  0
  3  6  1  0  0  0  0
  3 23  1  0  0  0  0
  4 15  2  0  0  0  0
  5  7  1  0  0  0  0
  5  8  1  0  0  0  0
  5 11  1  0  0  0  0
  6  9  1  0  0  0  0
  6 10  1  0  0  0  0
  6 22  1  0  0  0  0
  7 24  1  0  0  0  0
  7 25  1  0  0  0  0
  8 26  1  0  0  0  0
  8 27  1  0  0  0  0
  9 12  1  0  0  0  0
  9 28  1  0  0  0  0
  9 29  1  0  0  0  0
 10 13  1  0  0  0  0
 10 30  1  0  0  0  0
 10 31  1  0  0  0  0
 11 15  1  0  0  0  0
 11 32  1  0  0  0  0
 11 33  1  0  0  0  0
 12 14  1  0  0  0  0
 12 34  1  0  0  0  0
 12 35  1  0  0  0  0
 13 14  1  0  0  0  0
 13 36  1  0  0  0  0
 13 37  1  0  0  0  0
 14 38  1  0  0  0  0
 14 39  1  0  0  0  0
 15 16  1  0  0  0  0
 16 17  2  0  0  0  0
 16 40  1  0  0  0  0
 17 18  1  0  0  0  0
 18 19  1  0  0  0  0
 18 41  1  0  0  0  0
 18 42  1  0  0  0  0
 19 20  1  0  0  0  0
 19 21  1  0  0  0  0
 19 43  1  0  0  0  0
 20 44  1  0  0  0  0
 20 45  1  0  0  0  0
 20 46  1  0  0  0  0
 21 47  1  0  0  0  0
 21 48  1  0  0  0  0
 21 49  1  0  0  0  0
M  END
> <PUBCHEM_COMPOUND_CID>
56775678

> <PUBCHEM_CONFORMER_RMSD>
0.8

> <PUBCHEM_CONFORMER_DIVERSEORDER>
2
119
3
164
232
195
48
84
83
141
108
179
189
94
140
50
80
216
93
244
249
215
55
161
175
238
124
82
209
135
172
90
103
146
237
234
100
211
14
231
86
224
125
74
207
158
163
89
235
246
12
204
28
5
115
45
41
227
101
157
139
242
98
97
210
181
180
4
159
222
145
128
57
59
53
26
136
72
233
130
10
151
198
200
184
73
20
205
133
229
25
147
54
42
104
118
51
39
153
49
35
223
245
69
188
220
168
194
36
91
122
37
63
123
79
167
213
252
112
251
177
212
43
170
95
7
34
239
137
166
226
160
225
52
201
183
171
121
87
99
134
106
60
217
173
9
186
174
132
96
1
206
114
81
111
126
32
117
155
196
182
17
240
144
85
199
92
203
219
31
230
65
27
58
6
61
221
197
29
18
165
143
13
88
19
131
8
138
193
248
105
67
113
191
110
56
162
243
250
247
22
178
129
102
21
107
44
150
185
30
192
214
38
202
62
64
23
156
40
148
236
154
16
15
127
46
228
33
190
187
11
208
71
76
24
78
149
152
241
47
109
116
218
70
120
142
66
176
169
77
75
68

> <PUBCHEM_MMFF94_PARTIAL_CHARGES>
15
1 -0.52
11 0.18
15 0.11
16 -0.15
17 -0.04
18 0.18
2 -0.02
23 0.36
3 -0.84
4 -0.41
40 0.15
5 0.21
6 0.27
7 0.26
8 0.26

> <PUBCHEM_EFFECTIVE_ROTOR_COUNT>
8

> <PUBCHEM_PHARMACOPHORE_FEATURES>
8
1 1 acceptor
1 3 cation
1 3 donor
1 4 acceptor
3 19 20 21 hydrophobe
4 1 5 7 8 rings
5 2 4 15 16 17 rings
6 6 9 10 12 13 14 rings

> <PUBCHEM_HEAVY_ATOM_COUNT>
21

> <PUBCHEM_ATOM_DEF_STEREO_COUNT>
0

> <PUBCHEM_ATOM_UDEF_STEREO_COUNT>
0

> <PUBCHEM_BOND_DEF_STEREO_COUNT>
0

> <PUBCHEM_BOND_UDEF_STEREO_COUNT>
0

> <PUBCHEM_ISOTOPIC_ATOM_COUNT>
0

> <PUBCHEM_COMPONENT_COUNT>
1

> <PUBCHEM_CACTVS_TAUTO_COUNT>
1

> <PUBCHEM_CONFORMER_ID>
036253FE00000002

> <PUBCHEM_MMFF94_ENERGY>
35.3623

> <PUBCHEM_FEATURE_SELFOVERLAP>
40.596

> <PUBCHEM_SHAPE_FINGERPRINT>
10 15 17385449833938695289
10014705 185 18341049717749514362
10366900 7 17060345141148325874
10906281 52 18130805468005122120
11089746 13 17704068504496361840
117890 112 18342455950393605288
12236239 1 17675925408723559032
12403259 118 17313110760934765349
12422481 6 17168129106098403694
12507557 5 17530971276381138661
12596602 18 17095245838778912016
12892183 10 16008744671943081257
12969540 114 18339349808253634733
13103583 49 13262684699354491845
13533116 47 18270116800059613122
13544653 18 9583515412949923483
13675066 3 17676210182245806330
14123256 34 11023811917086947597
14251758 9 17676763185213297178
14251764 30 8646767802584611508
14528608 73 16630805530394759072
15188451 53 13696168327258485857
15375358 24 18060424642342553390
1813 80 8286195089101149547
18222031 100 9078824148314979465
18927931 339 8862953787559433481
19784866 34 18340770339012438171
200 152 12607406589331274423
20645477 56 18187362147177519484
21033648 29 18410284848122416264
21150785 3 14045737158388353528
21637258 2 10809347767046227593
22224240 67 18113623370386736217
22950370 63 8214137469176944059
2297311 6 8935007001052362346
23402539 116 18060699472451008217
23402655 69 16845578573781150409
23522609 53 7852724814989594070
23559900 14 18342749520478120166
2767999 5 18411414003493065056
2838139 119 17917989456056774528
2916195 48 18343863329213352073
293599 30 18408604751262576096
314194 84 9583221856172232229
33382 64 11530473416306296464
34934 24 18260263071081886530
5104073 3 17459186442905059816
5283173 99 18060414737641644832
5385378 56 18042969774792130563
53917941 68 18342447167090604543
633830 44 18129672893718666319
7226269 152 18335138687378161712
7495541 125 11097855216202332990

> <PUBCHEM_SHAPE_MULTIPOLES>
410.47
13.45
2.07
1.41
4.92
0.97
0.02
-10.34
-0.14
-0.56
-0.13
-0.26
-0.25
0.18

> <PUBCHEM_SHAPE_SELFOVERLAP>
846.343

> <PUBCHEM_SHAPE_VOLUME>
237.4

> <PUBCHEM_COORDINATE_TYPE>
2
5
10

$$$$
