45360646
  -OEChem-12032416293D

 65 69  0     1  0  0  0  0  0999 V2000
    2.2931    5.0635    0.5577 O   0  0  0  0  0  0  0  0  0  0  0  0
   -4.0936    0.4406   -1.8585 O   0  0  0  0  0  0  0  0  0  0  0  0
    8.0292   -3.3454   -0.9390 O   0  0  0  0  0  0  0  0  0  0  0  0
   -0.0771    2.2977    0.3219 N   0  0  1  0  0  0  0  0  0  0  0  0
    0.5592    4.7519   -0.8805 N   0  0  0  0  0  0  0  0  0  0  0  0
    2.8409    0.1621    0.0781 N   0  0  0  0  0  0  0  0  0  0  0  0
   -4.5719   -0.4995    0.2234 N   0  0  0  0  0  0  0  0  0  0  0  0
    0.9057    3.1546    0.9972 C   0  0  1  0  0  0  0  0  0  0  0  0
    1.7121    0.8936    0.6302 C   0  0  1  0  0  0  0  0  0  0  0  0
   -1.1164    3.0268   -0.3964 C   0  0  1  0  0  0  0  0  0  0  0  0
    2.1104    2.2341    1.2487 C   0  0  0  0  0  0  0  0  0  0  0  0
    0.6704    1.2788   -0.4113 C   0  0  0  0  0  0  0  0  0  0  0  0
   -0.5066    3.9519   -1.4380 C   0  0  0  0  0  0  0  0  0  0  0  0
   -2.1612    2.1044   -1.0259 C   0  0  0  0  0  0  0  0  0  0  0  0
    1.3261    4.3852    0.1988 C   0  0  0  0  0  0  0  0  0  0  0  0
   -2.8429    1.2122    0.0011 C   0  0  0  0  0  0  0  0  0  0  0  0
    3.5867   -0.5199    1.1284 C   0  0  0  0  0  0  0  0  0  0  0  0
   -3.8991    0.3478   -0.6462 C   0  0  0  0  0  0  0  0  0  0  0  0
    4.7690   -1.2725    0.5782 C   0  0  0  0  0  0  0  0  0  0  0  0
   -4.3363   -0.6088    1.6786 C   0  0  0  0  0  0  0  0  0  0  0  0
   -5.5972   -1.4018   -0.1290 C   0  0  0  0  0  0  0  0  0  0  0  0
   -5.2965   -1.6686    2.2293 C   0  0  0  0  0  0  0  0  0  0  0  0
   -6.0377   -2.0904    1.0031 C   0  0  0  0  0  0  0  0  0  0  0  0
    4.5780   -2.4868   -0.0813 C   0  0  0  0  0  0  0  0  0  0  0  0
    6.0556   -0.7549    0.7279 C   0  0  0  0  0  0  0  0  0  0  0  0
   -6.1610   -1.6521   -1.3716 C   0  0  0  0  0  0  0  0  0  0  0  0
   -7.0452   -3.0399    0.9229 C   0  0  0  0  0  0  0  0  0  0  0  0
    5.6737   -3.1834   -0.5909 C   0  0  0  0  0  0  0  0  0  0  0  0
    7.1513   -1.4516    0.2183 C   0  0  0  0  0  0  0  0  0  0  0  0
   -7.1781   -2.6078   -1.4612 C   0  0  0  0  0  0  0  0  0  0  0  0
   -7.6174   -3.2973   -0.3226 C   0  0  0  0  0  0  0  0  0  0  0  0
    6.9603   -2.6659   -0.4410 C   0  0  0  0  0  0  0  0  0  0  0  0
    9.3163   -2.7589   -0.7506 C   0  0  0  0  0  0  0  0  0  0  0  0
    0.4893    3.5125    1.9461 H   0  0  0  0  0  0  0  0  0  0  0  0
    1.2030    0.2827    1.3913 H   0  0  0  0  0  0  0  0  0  0  0  0
   -1.6399    3.6513    0.3418 H   0  0  0  0  0  0  0  0  0  0  0  0
    3.0260    2.6229    0.7862 H   0  0  0  0  0  0  0  0  0  0  0  0
    2.3048    2.1158    2.3209 H   0  0  0  0  0  0  0  0  0  0  0  0
    0.0595    0.4138   -0.6876 H   0  0  0  0  0  0  0  0  0  0  0  0
    1.1440    1.6800   -1.3156 H   0  0  0  0  0  0  0  0  0  0  0  0
   -1.2582    4.6440   -1.8331 H   0  0  0  0  0  0  0  0  0  0  0  0
   -0.0870    3.4009   -2.2868 H   0  0  0  0  0  0  0  0  0  0  0  0
   -2.9195    2.7254   -1.5224 H   0  0  0  0  0  0  0  0  0  0  0  0
   -1.7108    1.4938   -1.8193 H   0  0  0  0  0  0  0  0  0  0  0  0
    0.8368    5.5846   -1.3910 H   0  0  0  0  0  0  0  0  0  0  0  0
    2.4951   -0.5306   -0.5864 H   0  0  0  0  0  0  0  0  0  0  0  0
   -3.3180    1.8336    0.7683 H   0  0  0  0  0  0  0  0  0  0  0  0
   -2.1134    0.5556    0.4854 H   0  0  0  0  0  0  0  0  0  0  0  0
    2.9441   -1.2324    1.6626 H   0  0  0  0  0  0  0  0  0  0  0  0
    3.9382    0.1996    1.8785 H   0  0  0  0  0  0  0  0  0  0  0  0
   -4.5108    0.3677    2.1437 H   0  0  0  0  0  0  0  0  0  0  0  0
   -3.2917   -0.8886    1.8539 H   0  0  0  0  0  0  0  0  0  0  0  0
   -5.9722   -1.2390    2.9753 H   0  0  0  0  0  0  0  0  0  0  0  0
   -4.7478   -2.5068    2.6696 H   0  0  0  0  0  0  0  0  0  0  0  0
    3.5806   -2.9008   -0.2033 H   0  0  0  0  0  0  0  0  0  0  0  0
    6.2181    0.1913    1.2375 H   0  0  0  0  0  0  0  0  0  0  0  0
   -5.8466   -1.1387   -2.2718 H   0  0  0  0  0  0  0  0  0  0  0  0
   -7.3840   -3.5730    1.8049 H   0  0  0  0  0  0  0  0  0  0  0  0
    5.5188   -4.1288   -1.1036 H   0  0  0  0  0  0  0  0  0  0  0  0
    8.1223   -0.9923    0.3691 H   0  0  0  0  0  0  0  0  0  0  0  0
   -7.6338   -2.8194   -2.4250 H   0  0  0  0  0  0  0  0  0  0  0  0
   -8.4085   -4.0364   -0.4123 H   0  0  0  0  0  0  0  0  0  0  0  0
   10.0484   -3.4326   -1.2080 H   0  0  0  0  0  0  0  0  0  0  0  0
    9.5722   -2.6825    0.3116 H   0  0  0  0  0  0  0  0  0  0  0  0
    9.4000   -1.7972   -1.2681 H   0  0  0  0  0  0  0  0  0  0  0  0
  1 15  2  0  0  0  0
  2 18  2  0  0  0  0
  3 32  1  0  0  0  0
  3 33  1  0  0  0  0
  4  8  1  0  0  0  0
  4 10  1  0  0  0  0
  4 12  1  0  0  0  0
  5 13  1  0  0  0  0
  5 15  1  0  0  0  0
  5 45  1  0  0  0  0
  6  9  1  0  0  0  0
  6 17  1  0  0  0  0
  6 46  1  0  0  0  0
  7 18  1  0  0  0  0
  7 20  1  0  0  0  0
  7 21  1  0  0  0  0
  8 11  1  0  0  0  0
  8 15  1  0  0  0  0
  8 34  1  0  0  0  0
  9 11  1  0  0  0  0
  9 12  1  0  0  0  0
  9 35  1  0  0  0  0
 10 13  1  0  0  0  0
 10 14  1  0  0  0  0
 10 36  1  0  0  0  0
 11 37  1  0  0  0  0
 11 38  1  0  0  0  0
 12 39  1  0  0  0  0
 12 40  1  0  0  0  0
 13 41  1  0  0  0  0
 13 42  1  0  0  0  0
 14 16  1  0  0  0  0
 14 43  1  0  0  0  0
 14 44  1  0  0  0  0
 16 18  1  0  0  0  0
 16 47  1  0  0  0  0
 16 48  1  0  0  0  0
 17 19  1  0  0  0  0
 17 49  1  0  0  0  0
 17 50  1  0  0  0  0
 19 24  2  0  0  0  0
 19 25  1  0  0  0  0
 20 22  1  0  0  0  0
 20 51  1  0  0  0  0
 20 52  1  0  0  0  0
 21 23  1  0  0  0  0
 21 26  2  0  0  0  0
 22 23  1  0  0  0  0
 22 53  1  0  0  0  0
 22 54  1  0  0  0  0
 23 27  2  0  0  0  0
 24 28  1  0  0  0  0
 24 55  1  0  0  0  0
 25 29  2  0  0  0  0
 25 56  1  0  0  0  0
 26 30  1  0  0  0  0
 26 57  1  0  0  0  0
 27 31  1  0  0  0  0
 27 58  1  0  0  0  0
 28 32  2  0  0  0  0
 28 59  1  0  0  0  0
 29 32  1  0  0  0  0
 29 60  1  0  0  0  0
 30 31  2  0  0  0  0
 30 61  1  0  0  0  0
 31 62  1  0  0  0  0
 33 63  1  0  0  0  0
 33 64  1  0  0  0  0
 33 65  1  0  0  0  0
M  END
> <PUBCHEM_COMPOUND_CID>
45360646

> <PUBCHEM_CONFORMER_RMSD>
1

> <PUBCHEM_CONFORMER_DIVERSEORDER>
1
147
197
33
235
145
146
59
112
52
144
218
158
173
166
175
251
56
219
234
203
217
102
137
163
180
241
138
215
246
91
92
224
95
134
23
148
229
11
195
207
31
257
176
179
63
141
186
250
238
18
133
174
50
188
34
194
155
198
142
231
83
221
69
89
66
35
60
45
225
233
248
129
230
77
172
61
22
78
4
121
254
162
2
243
25
192
193
161
46
256
249
236
100
98
87
109
131
123
3
136
189
139
171
21
40
68
27
127
44
227
117
6
165
106
51
223
182
88
81
119
126
111
10
130
132
93
20
183
201
125
206
220
85
191
245
38
99
13
205
190
187
76
115
15
237
14
151
244
168
252
128
103
97
110
114
53
72
157
135
79
48
228
47
202
55
71
104
150
12
149
255
41
57
212
152
64
43
216
32
74
167
118
160
67
169
200
96
196
116
65
54
49
239
222
159
24
94
82
140
240
208
164
30
177
42
170
16
90
62
84
17
185
39
204
101
153
143
26
210
5
36
105
28
58
124
107
86
242
178
199
211
7
70
253
156
154
108
75
226
247
122
120
181
80
9
184
37
29
232
209
214
213
73
113
19
8

> <PUBCHEM_MMFF94_PARTIAL_CHARGES>
41
1 -0.57
10 0.27
12 0.27
13 0.3
15 0.57
16 0.06
17 0.41
18 0.57
19 -0.14
2 -0.57
20 0.3
21 0.12
22 0.14
23 -0.14
24 -0.15
25 -0.15
26 -0.15
27 -0.15
28 -0.15
29 -0.15
3 -0.36
30 -0.15
31 -0.15
32 0.08
33 0.28
4 -0.81
45 0.37
46 0.36
5 -0.73
55 0.15
56 0.15
57 0.15
58 0.15
59 0.15
6 -0.9
60 0.15
61 0.15
62 0.15
7 -0.48
8 0.33
9 0.27

> <PUBCHEM_EFFECTIVE_ROTOR_COUNT>
9.8

> <PUBCHEM_PHARMACOPHORE_FEATURES>
12
1 1 acceptor
1 2 acceptor
1 3 acceptor
1 4 cation
1 5 donor
1 6 cation
1 6 donor
5 4 8 9 11 12 rings
5 7 20 21 22 23 rings
6 19 24 25 28 29 32 rings
6 21 23 26 27 30 31 rings
6 4 5 8 10 13 15 rings

> <PUBCHEM_HEAVY_ATOM_COUNT>
33

> <PUBCHEM_ATOM_DEF_STEREO_COUNT>
3

> <PUBCHEM_ATOM_UDEF_STEREO_COUNT>
0

> <PUBCHEM_BOND_DEF_STEREO_COUNT>
0

> <PUBCHEM_BOND_UDEF_STEREO_COUNT>
0

> <PUBCHEM_ISOTOPIC_ATOM_COUNT>
0

> <PUBCHEM_COMPONENT_COUNT>
1

> <PUBCHEM_CACTVS_TAUTO_COUNT>
3

> <PUBCHEM_CONFORMER_ID>
02B4260600000001

> <PUBCHEM_MMFF94_ENERGY>
96.777

> <PUBCHEM_FEATURE_SELFOVERLAP>
61.171

> <PUBCHEM_SHAPE_FINGERPRINT>
10319688 140 18265615570716360196
11059845 2 17702121183615482641
11227688 84 18265881484963163191
11497681 19 18413111641763375024
117089 54 18409731763539561518
11756154 67 18411419522637180687
11828042 74 18336538301756374623
12107183 9 18341341003218162897
12522641 126 18188779473875195236
12645989 146 18411702110089671851
131258 43 18187936105269875172
1361 4 18193276283270631010
1361 87 17603872256046176499
14931854 50 17458339728235405627
14950920 106 15769190843573257459
15320294 125 17132111360268157087
15324884 4 18053062260706897064
15351339 4 17822846481723245482
15392192 29 18340209566523364781
15467298 65 17756138991223665026
15510800 12 18334007337373962259
15773216 30 18264494065188932588
16990366 60 18261381274254692418
16992779 147 16055167277593224690
17492 89 18338794619855321521
21130935 74 18123191471191469211
21133410 32 15648209380314854960
21307412 95 18264195938470807445
21344244 246 18261680359325647836
21682296 61 18409727405076515259
21716022 299 18115040696093259012
22899556 105 18338532893475751324
23559900 14 17241324824010741701
23569914 2 13409078234838233198
255183 451 18408882970686199213
32027 91 18263085569154897475
3627633 1 18337670793779788684
393628 194 9294993674781341363
397638 26 10663815282934099302
4017518 198 17759249888003117300
4330586 98 17459205099947912250
437815 12 18335421279114655459
5309563 4 18409162199721788803
636775 8 18270687455537973654
6673363 416 18339654335623057572
9980921 52 17842255233350406711
999808 66 18342457010881463822

> <PUBCHEM_SHAPE_MULTIPOLES>
641.59
24.57
6.68
1.49
13.55
7.3
0.16
-45.18
-3.29
3.94
-1.2
-2.03
-0.18
2.53

> <PUBCHEM_SHAPE_SELFOVERLAP>
1381.906

> <PUBCHEM_SHAPE_VOLUME>
354

> <PUBCHEM_COORDINATE_TYPE>
2
5
10

$$$$
