7142705
  -OEChem-12032416363D

 60 63  0     1  0  0  0  0  0999 V2000
   -4.0493   -1.5406    1.7316 O   0  0  0  0  0  0  0  0  0  0  0  0
    0.2305    1.6767    1.8358 O   0  0  0  0  0  0  0  0  0  0  0  0
    2.3580   -0.5661   -1.8993 O   0  0  0  0  0  0  0  0  0  0  0  0
   -4.2956    0.2094    0.2231 N   0  0  0  0  0  0  0  0  0  0  0  0
   -1.5709    1.8768    0.3610 N   0  0  0  0  0  0  0  0  0  0  0  0
    1.9694    0.9205   -0.1529 N   0  0  0  0  0  0  0  0  0  0  0  0
    9.2071   -0.7328    1.1697 N   0  0  0  0  0  0  0  0  0  0  0  0
   -3.9291    2.5070    1.1324 C   0  0  1  0  0  0  0  0  0  0  0  0
   -3.5030    2.0544   -1.2466 C   0  0  2  0  0  0  0  0  0  0  0  0
   -4.0856    3.0761   -0.2725 C   0  0  0  0  0  0  0  0  0  0  0  0
   -4.6795    1.1698    1.2594 C   0  0  0  0  0  0  0  0  0  0  0  0
   -4.2967    0.7368   -1.1497 C   0  0  0  0  0  0  0  0  0  0  0  0
   -2.4351    2.3615    1.4454 C   0  0  0  0  0  0  0  0  0  0  0  0
   -2.0370    1.7950   -0.9550 C   0  0  0  0  0  0  0  0  0  0  0  0
   -4.0455   -1.1178    0.5726 C   0  0  0  0  0  0  0  0  0  0  0  0
   -1.1976    1.4607   -1.9496 C   0  0  0  0  0  0  0  0  0  0  0  0
   -0.2296    1.6013    0.6957 C   0  0  0  0  0  0  0  0  0  0  0  0
   -3.7481   -2.0696   -0.5581 C   0  0  0  0  0  0  0  0  0  0  0  0
   -3.5385   -3.5182   -0.0810 C   0  0  0  0  0  0  0  0  0  0  0  0
    0.6670    1.2084   -0.4373 C   0  0  0  0  0  0  0  0  0  0  0  0
    0.1806    1.1608   -1.6821 C   0  0  0  0  0  0  0  0  0  0  0  0
   -4.8233   -3.9687    0.6390 C   0  0  0  0  0  0  0  0  0  0  0  0
   -3.2848   -4.4628   -1.2682 C   0  0  0  0  0  0  0  0  0  0  0  0
   -2.3638   -3.6128    0.9075 C   0  0  0  0  0  0  0  0  0  0  0  0
    2.7414    0.0456   -0.9051 C   0  0  0  0  0  0  0  0  0  0  0  0
    4.1472   -0.1239   -0.4541 C   0  0  0  0  0  0  0  0  0  0  0  0
    5.1058   -0.4775   -1.3806 C   0  0  0  0  0  0  0  0  0  0  0  0
    4.4481    0.0791    0.8765 C   0  0  0  0  0  0  0  0  0  0  0  0
    6.4255   -0.6352   -0.9572 C   0  0  0  0  0  0  0  0  0  0  0  0
    5.7678   -0.0785    1.2998 C   0  0  0  0  0  0  0  0  0  0  0  0
    6.7565   -0.4357    0.3829 C   0  0  0  0  0  0  0  0  0  0  0  0
    8.1080   -0.5996    0.8168 C   0  0  0  0  0  0  0  0  0  0  0  0
   -4.3660    3.2014    1.8608 H   0  0  0  0  0  0  0  0  0  0  0  0
   -3.6135    2.4509   -2.2643 H   0  0  0  0  0  0  0  0  0  0  0  0
   -5.1435    3.2600   -0.4960 H   0  0  0  0  0  0  0  0  0  0  0  0
   -3.5662    4.0386   -0.3601 H   0  0  0  0  0  0  0  0  0  0  0  0
   -4.5276    0.7446    2.2572 H   0  0  0  0  0  0  0  0  0  0  0  0
   -5.7577    1.3381    1.1456 H   0  0  0  0  0  0  0  0  0  0  0  0
   -5.3460    0.9094   -1.4196 H   0  0  0  0  0  0  0  0  0  0  0  0
   -3.9027    0.0121   -1.8655 H   0  0  0  0  0  0  0  0  0  0  0  0
   -2.0371    3.3478    1.7210 H   0  0  0  0  0  0  0  0  0  0  0  0
   -2.2867    1.7210    2.3239 H   0  0  0  0  0  0  0  0  0  0  0  0
   -1.5372    1.3839   -2.9773 H   0  0  0  0  0  0  0  0  0  0  0  0
   -4.5785   -2.0351   -1.2739 H   0  0  0  0  0  0  0  0  0  0  0  0
   -2.8396   -1.7267   -1.0681 H   0  0  0  0  0  0  0  0  0  0  0  0
    0.7758    0.9454   -2.5611 H   0  0  0  0  0  0  0  0  0  0  0  0
   -4.8169   -5.0588    0.7690 H   0  0  0  0  0  0  0  0  0  0  0  0
   -5.7159   -3.7290    0.0494 H   0  0  0  0  0  0  0  0  0  0  0  0
   -4.9608   -3.5651    1.6441 H   0  0  0  0  0  0  0  0  0  0  0  0
   -2.3786   -4.1709   -1.8106 H   0  0  0  0  0  0  0  0  0  0  0  0
   -3.1574   -5.5000   -0.9387 H   0  0  0  0  0  0  0  0  0  0  0  0
   -4.1203   -4.4376   -1.9766 H   0  0  0  0  0  0  0  0  0  0  0  0
   -2.0974   -4.6632    1.0795 H   0  0  0  0  0  0  0  0  0  0  0  0
   -2.5569   -3.1957    1.8977 H   0  0  0  0  0  0  0  0  0  0  0  0
   -1.4730   -3.1203    0.5009 H   0  0  0  0  0  0  0  0  0  0  0  0
    2.3042    1.2736    0.7369 H   0  0  0  0  0  0  0  0  0  0  0  0
    4.8656   -0.6310   -2.4283 H   0  0  0  0  0  0  0  0  0  0  0  0
    3.7103    0.3139    1.6354 H   0  0  0  0  0  0  0  0  0  0  0  0
    7.1853   -0.9131   -1.6840 H   0  0  0  0  0  0  0  0  0  0  0  0
    6.0094    0.0706    2.3496 H   0  0  0  0  0  0  0  0  0  0  0  0
  1 15  2  0  0  0  0
  2 17  2  0  0  0  0
  3 25  2  0  0  0  0
  4 11  1  0  0  0  0
  4 12  1  0  0  0  0
  4 15  1  0  0  0  0
  5 13  1  0  0  0  0
  5 14  1  0  0  0  0
  5 17  1  0  0  0  0
  6 20  1  0  0  0  0
  6 25  1  0  0  0  0
  6 56  1  0  0  0  0
  7 32  3  0  0  0  0
  8 10  1  0  0  0  0
  8 11  1  0  0  0  0
  8 13  1  0  0  0  0
  8 33  1  0  0  0  0
  9 10  1  0  0  0  0
  9 12  1  0  0  0  0
  9 14  1  0  0  0  0
  9 34  1  0  0  0  0
 10 35  1  0  0  0  0
 10 36  1  0  0  0  0
 11 37  1  0  0  0  0
 11 38  1  0  0  0  0
 12 39  1  0  0  0  0
 12 40  1  0  0  0  0
 13 41  1  0  0  0  0
 13 42  1  0  0  0  0
 14 16  2  0  0  0  0
 15 18  1  0  0  0  0
 16 21  1  0  0  0  0
 16 43  1  0  0  0  0
 17 20  1  0  0  0  0
 18 19  1  0  0  0  0
 18 44  1  0  0  0  0
 18 45  1  0  0  0  0
 19 22  1  0  0  0  0
 19 23  1  0  0  0  0
 19 24  1  0  0  0  0
 20 21  2  0  0  0  0
 21 46  1  0  0  0  0
 22 47  1  0  0  0  0
 22 48  1  0  0  0  0
 22 49  1  0  0  0  0
 23 50  1  0  0  0  0
 23 51  1  0  0  0  0
 23 52  1  0  0  0  0
 24 53  1  0  0  0  0
 24 54  1  0  0  0  0
 24 55  1  0  0  0  0
 25 26  1  0  0  0  0
 26 27  2  0  0  0  0
 26 28  1  0  0  0  0
 27 29  1  0  0  0  0
 27 57  1  0  0  0  0
 28 30  2  0  0  0  0
 28 58  1  0  0  0  0
 29 31  2  0  0  0  0
 29 59  1  0  0  0  0
 30 31  1  0  0  0  0
 30 60  1  0  0  0  0
 31 32  1  0  0  0  0
M  END
> <PUBCHEM_COMPOUND_CID>
7142705

> <PUBCHEM_CONFORMER_RMSD>
1

> <PUBCHEM_CONFORMER_DIVERSEORDER>
1
10
3
9
8
5
6
2
7
4

> <PUBCHEM_MMFF94_PARTIAL_CHARGES>
33
1 -0.57
11 0.3
12 0.3
13 0.3
14 -0.03
15 0.57
16 -0.15
17 0.62
18 0.06
2 -0.57
20 0.12
21 -0.15
25 0.54
26 0.09
27 -0.15
28 -0.15
29 -0.15
3 -0.57
30 -0.15
31 0.07
32 0.48
4 -0.66
43 0.15
46 0.15
5 -0.47
56 0.37
57 0.15
58 0.15
59 0.15
6 -0.54
60 0.15
7 -0.56
9 0.14

> <PUBCHEM_EFFECTIVE_ROTOR_COUNT>
7

> <PUBCHEM_PHARMACOPHORE_FEATURES>
10
1 1 acceptor
1 2 acceptor
1 3 acceptor
1 6 donor
1 7 acceptor
4 19 22 23 24 hydrophobe
6 26 27 28 29 30 31 rings
6 4 8 9 10 11 12 rings
6 5 14 16 17 20 21 rings
6 5 8 9 10 13 14 rings

> <PUBCHEM_HEAVY_ATOM_COUNT>
32

> <PUBCHEM_ATOM_DEF_STEREO_COUNT>
2

> <PUBCHEM_ATOM_UDEF_STEREO_COUNT>
0

> <PUBCHEM_BOND_DEF_STEREO_COUNT>
0

> <PUBCHEM_BOND_UDEF_STEREO_COUNT>
0

> <PUBCHEM_ISOTOPIC_ATOM_COUNT>
0

> <PUBCHEM_COMPONENT_COUNT>
1

> <PUBCHEM_CACTVS_TAUTO_COUNT>
2

> <PUBCHEM_CONFORMER_ID>
006CFD3100000001

> <PUBCHEM_MMFF94_ENERGY>
97.3497

> <PUBCHEM_FEATURE_SELFOVERLAP>
52.309

> <PUBCHEM_SHAPE_FINGERPRINT>
10319688 45 18334012795887265213
10622 236 18043532922098094367
11273773 118 9439410159338937196
11315181 36 17703500013355341501
11524674 6 18341332198170539743
12013929 27 14852186064713652130
12522641 68 17027943447683979180
12523318 42 18412265030061990577
12712778 12 18411987983054306319
13631057 29 18408881866842563794
14020679 6 17702959024139112577
14068700 675 18263081175371575223
14114206 34 16660912379403445133
14461889 52 18060415795211219946
14705955 166 17274275967592588931
14725015 67 18267303317181680659
14844126 61 18411704313866311275
14856354 85 18413671301107547844
15021287 119 16877667855324417084
15183329 4 12829211062151479776
15320294 125 18186806885210906903
15348495 7 18272930536019194208
15484559 13 13778840304969102044
17324776 126 17767387347279073686
17780758 139 18413108359733218593
17913733 40 16773801385732357302
19611394 137 18131630115216985304
20775530 9 17835256910384644687
22956985 138 17909544296338731433
23428019 142 17676770975767638298
23523787 8 17757224342696804767
23559900 14 18340199808299957769
249057 3 18187363203893215485
3383291 50 18343025510803225359
397830 11 18270672186691599712
4073 2 18201722808819175678
4403749 210 18272922839553428508
4616759 239 17917424286016491130
4625314 4 18335984182667546268
484985 159 18334007324800433119
49967989 163 18042425671709883974
5080951 261 18260821588080464732
5364581 5 18201432644749871816
6009941 240 18201999885043026360
6441014 3 17976540833980632506
6691757 9 18339365172037773129
68570916 9 18260832627212337788
9953998 17 18412824664411604888

> <PUBCHEM_SHAPE_MULTIPOLES>
621.01
18.31
4.37
1.76
48.09
5.18
0.16
7.58
-5.19
-11.26
-0.13
-0.03
-0.34
-0.07

> <PUBCHEM_SHAPE_SELFOVERLAP>
1342.964

> <PUBCHEM_SHAPE_VOLUME>
331.6

> <PUBCHEM_COORDINATE_TYPE>
2
5
10

$$$$
