51138059
  -OEChem-12032416233D

 62 65  0     1  0  0  0  0  0999 V2000
   -3.2725    2.4577   -1.3378 O   0  0  0  0  0  0  0  0  0  0  0  0
   -2.1449   -0.3000   -0.5572 N   0  0  0  0  0  0  0  0  0  0  0  0
    2.5309    0.9394    0.8937 N   0  0  0  0  0  0  0  0  0  0  0  0
   -4.4349    1.4880    0.4308 N   0  0  0  0  0  0  0  0  0  0  0  0
    5.8883    0.0602    0.5055 N   0  0  0  0  0  0  0  0  0  0  0  0
   -1.6591   -1.4379    0.2349 C   0  0  2  0  0  0  0  0  0  0  0  0
   -0.1831   -1.3881    0.6426 C   0  0  0  0  0  0  0  0  0  0  0  0
   -2.1140    0.9803    0.1352 C   0  0  1  0  0  0  0  0  0  0  0  0
    0.6358   -0.2223    0.6182 C   0  0  0  0  0  0  0  0  0  0  0  0
   -1.9947   -2.6760   -0.6159 C   0  0  0  0  0  0  0  0  0  0  0  0
   -0.8593    1.7777   -0.2155 C   0  0  0  0  0  0  0  0  0  0  0  0
    0.4080    1.1526    0.2635 C   0  0  0  0  0  0  0  0  0  0  0  0
    1.9706   -0.3086    1.0308 C   0  0  0  0  0  0  0  0  0  0  0  0
   -3.4777   -3.0559   -0.5605 C   0  0  0  0  0  0  0  0  0  0  0  0
    1.6000    1.8260    0.4392 C   0  0  0  0  0  0  0  0  0  0  0  0
    0.4177   -2.5635    1.1609 C   0  0  0  0  0  0  0  0  0  0  0  0
   -3.3198    1.7216   -0.3558 C   0  0  0  0  0  0  0  0  0  0  0  0
    2.5572   -1.4872    1.4944 C   0  0  0  0  0  0  0  0  0  0  0  0
    3.9021    1.2858    1.2014 C   0  0  0  0  0  0  0  0  0  0  0  0
    1.7504   -2.6155    1.5650 C   0  0  0  0  0  0  0  0  0  0  0  0
   -4.3913   -1.9388   -1.0667 C   0  0  0  0  0  0  0  0  0  0  0  0
   -3.7049   -4.3241   -1.3865 C   0  0  0  0  0  0  0  0  0  0  0  0
   -5.7195    2.1017    0.1834 C   0  0  0  0  0  0  0  0  0  0  0  0
    4.8780    0.8749    0.1272 C   0  0  0  0  0  0  0  0  0  0  0  0
   -6.5399    1.2547   -0.7815 C   0  0  0  0  0  0  0  0  0  0  0  0
   -6.4630    2.3207    1.4947 C   0  0  0  0  0  0  0  0  0  0  0  0
    4.6984    1.3389   -1.1661 C   0  0  0  0  0  0  0  0  0  0  0  0
    5.6146    0.9407   -2.1333 C   0  0  0  0  0  0  0  0  0  0  0  0
    6.7591   -0.3056   -0.4618 C   0  0  0  0  0  0  0  0  0  0  0  0
    6.6674    0.1028   -1.7827 C   0  0  0  0  0  0  0  0  0  0  0  0
   -2.2326   -1.4925    1.1704 H   0  0  0  0  0  0  0  0  0  0  0  0
   -2.1899    0.8604    1.2244 H   0  0  0  0  0  0  0  0  0  0  0  0
   -1.6766   -2.5240   -1.6581 H   0  0  0  0  0  0  0  0  0  0  0  0
   -1.4386   -3.5597   -0.2903 H   0  0  0  0  0  0  0  0  0  0  0  0
   -0.7757    1.9230   -1.3019 H   0  0  0  0  0  0  0  0  0  0  0  0
   -0.9435    2.7841    0.2177 H   0  0  0  0  0  0  0  0  0  0  0  0
   -1.6606   -0.2465   -1.4525 H   0  0  0  0  0  0  0  0  0  0  0  0
   -3.7526   -3.2825    0.4776 H   0  0  0  0  0  0  0  0  0  0  0  0
    1.8477    2.8670    0.2773 H   0  0  0  0  0  0  0  0  0  0  0  0
   -0.1663   -3.4715    1.2922 H   0  0  0  0  0  0  0  0  0  0  0  0
    3.5928   -1.5311    1.8133 H   0  0  0  0  0  0  0  0  0  0  0  0
    3.9609    2.3711    1.3488 H   0  0  0  0  0  0  0  0  0  0  0  0
    4.1569    0.8240    2.1625 H   0  0  0  0  0  0  0  0  0  0  0  0
    2.1598   -3.5459    1.9497 H   0  0  0  0  0  0  0  0  0  0  0  0
   -4.0503   -1.5249   -2.0211 H   0  0  0  0  0  0  0  0  0  0  0  0
   -4.4938   -1.1444   -0.3263 H   0  0  0  0  0  0  0  0  0  0  0  0
   -5.4062   -2.3221   -1.2273 H   0  0  0  0  0  0  0  0  0  0  0  0
   -3.4625   -4.1605   -2.4422 H   0  0  0  0  0  0  0  0  0  0  0  0
   -4.7500   -4.6466   -1.3258 H   0  0  0  0  0  0  0  0  0  0  0  0
   -3.0840   -5.1480   -1.0188 H   0  0  0  0  0  0  0  0  0  0  0  0
   -4.3741    0.8070    1.1825 H   0  0  0  0  0  0  0  0  0  0  0  0
   -5.5435    3.0787   -0.2828 H   0  0  0  0  0  0  0  0  0  0  0  0
   -6.7403    0.2611   -0.3655 H   0  0  0  0  0  0  0  0  0  0  0  0
   -6.0089    1.1137   -1.7292 H   0  0  0  0  0  0  0  0  0  0  0  0
   -7.5007    1.7318   -1.0005 H   0  0  0  0  0  0  0  0  0  0  0  0
   -6.6575    1.3712    2.0059 H   0  0  0  0  0  0  0  0  0  0  0  0
   -5.8742    2.9462    2.1747 H   0  0  0  0  0  0  0  0  0  0  0  0
   -7.4229    2.8182    1.3223 H   0  0  0  0  0  0  0  0  0  0  0  0
    3.8835    2.0009   -1.4364 H   0  0  0  0  0  0  0  0  0  0  0  0
    5.5099    1.2847   -3.1579 H   0  0  0  0  0  0  0  0  0  0  0  0
    7.5618   -0.9594   -0.1370 H   0  0  0  0  0  0  0  0  0  0  0  0
    7.3936   -0.2199   -2.5199 H   0  0  0  0  0  0  0  0  0  0  0  0
  1 17  2  0  0  0  0
  2  6  1  0  0  0  0
  2  8  1  0  0  0  0
  2 37  1  0  0  0  0
  3 13  1  0  0  0  0
  3 15  1  0  0  0  0
  3 19  1  0  0  0  0
  4 17  1  0  0  0  0
  4 23  1  0  0  0  0
  4 51  1  0  0  0  0
  5 24  1  0  0  0  0
  5 29  2  0  0  0  0
  6  7  1  0  0  0  0
  6 10  1  0  0  0  0
  6 31  1  0  0  0  0
  7  9  2  0  0  0  0
  7 16  1  0  0  0  0
  8 11  1  0  0  0  0
  8 17  1  0  0  0  0
  8 32  1  0  0  0  0
  9 12  1  0  0  0  0
  9 13  1  0  0  0  0
 10 14  1  0  0  0  0
 10 33  1  0  0  0  0
 10 34  1  0  0  0  0
 11 12  1  0  0  0  0
 11 35  1  0  0  0  0
 11 36  1  0  0  0  0
 12 15  2  0  0  0  0
 13 18  2  0  0  0  0
 14 21  1  0  0  0  0
 14 22  1  0  0  0  0
 14 38  1  0  0  0  0
 15 39  1  0  0  0  0
 16 20  2  0  0  0  0
 16 40  1  0  0  0  0
 18 20  1  0  0  0  0
 18 41  1  0  0  0  0
 19 24  1  0  0  0  0
 19 42  1  0  0  0  0
 19 43  1  0  0  0  0
 20 44  1  0  0  0  0
 21 45  1  0  0  0  0
 21 46  1  0  0  0  0
 21 47  1  0  0  0  0
 22 48  1  0  0  0  0
 22 49  1  0  0  0  0
 22 50  1  0  0  0  0
 23 25  1  0  0  0  0
 23 26  1  0  0  0  0
 23 52  1  0  0  0  0
 24 27  2  0  0  0  0
 25 53  1  0  0  0  0
 25 54  1  0  0  0  0
 25 55  1  0  0  0  0
 26 56  1  0  0  0  0
 26 57  1  0  0  0  0
 26 58  1  0  0  0  0
 27 28  1  0  0  0  0
 27 59  1  0  0  0  0
 28 30  2  0  0  0  0
 28 60  1  0  0  0  0
 29 30  1  0  0  0  0
 29 61  1  0  0  0  0
 30 62  1  0  0  0  0
M  END
> <PUBCHEM_COMPOUND_CID>
51138059

> <PUBCHEM_CONFORMER_RMSD>
1

> <PUBCHEM_CONFORMER_DIVERSEORDER>
1
79
32
116
125
3
47
43
5
56
119
66
50
103
126
90
102
24
51
22
91
98
10
96
72
99
8
100
46
64
109
58
45
85
49
122
73
54
37
108
123
101
70
27
30
115
89
117
121
118
59
97
61
42
105
60
20
69
15
38
40
107
120
63
106
33
17
92
12
65
19
124
7
127
80
6
48
110
75
87
82
25
67
74
76
86
35
21
2
111
104
113
31
16
114
93
41
36
34
9
39
81
11
53
57
28
14
88
4
78
77
71
52
83
84
112
44
29
68
95
23
13
62
94
55
26
18

> <PUBCHEM_MMFF94_PARTIAL_CHARGES>
33
1 -0.57
11 0.18
12 -0.18
13 -0.15
15 -0.3
16 -0.15
17 0.57
18 -0.15
19 0.4
2 -0.9
20 -0.15
23 0.3
24 0.17
27 -0.15
28 -0.15
29 0.16
3 0.05
30 -0.15
37 0.36
39 0.15
4 -0.73
40 0.15
41 0.15
44 0.15
5 -0.62
51 0.37
59 0.15
6 0.41
60 0.15
61 0.15
62 0.15
7 -0.14
8 0.33

> <PUBCHEM_EFFECTIVE_ROTOR_COUNT>
7.8

> <PUBCHEM_PHARMACOPHORE_FEATURES>
12
1 1 acceptor
1 2 cation
1 2 donor
1 3 cation
1 4 donor
1 5 acceptor
3 14 21 22 hydrophobe
3 23 25 26 hydrophobe
5 3 9 12 13 15 rings
6 5 24 27 28 29 30 rings
6 7 9 13 16 18 20 rings
7 2 6 7 8 9 11 12 rings

> <PUBCHEM_HEAVY_ATOM_COUNT>
30

> <PUBCHEM_ATOM_DEF_STEREO_COUNT>
2

> <PUBCHEM_ATOM_UDEF_STEREO_COUNT>
0

> <PUBCHEM_BOND_DEF_STEREO_COUNT>
0

> <PUBCHEM_BOND_UDEF_STEREO_COUNT>
0

> <PUBCHEM_ISOTOPIC_ATOM_COUNT>
0

> <PUBCHEM_COMPONENT_COUNT>
1

> <PUBCHEM_CACTVS_TAUTO_COUNT>
2

> <PUBCHEM_CONFORMER_ID>
030C4E0B00000001

> <PUBCHEM_MMFF94_ENERGY>
68.3395

> <PUBCHEM_FEATURE_SELFOVERLAP>
61.026

> <PUBCHEM_SHAPE_FINGERPRINT>
10190108 129 18189349025204055907
10670039 82 18114178675071439358
10674148 151 17560244613824288608
11445158 3 17828468185670211191
11479125 193 15359397474091093780
11796584 16 18202568380590030294
12954195 1 18342740749216034599
13540713 5 18189876708432131226
13782708 43 17130988826993279606
13911987 19 18266165155438438621
14294032 229 18261107431313904445
14347332 77 18340763861985828838
14790565 3 18333733528428363577
14840074 17 17022906765510926228
15131766 46 16009611203307510404
15183329 4 17989212504026979992
15629462 23 16773810155707136817
15927050 60 18342454808054046263
15961568 22 16732988561517168068
16752209 62 18261670493500211306
19319366 153 18041277656066453323
19841028 212 14835851604408332084
20775438 99 16973905088695201302
21641784 216 17895742023568587295
22393880 68 18341040904560967106
23559900 14 18272366504172091704
244849 19 17059197306352957626
25147074 1 18188194447257135322
3610482 184 18042423446552003684
38570 142 18334305231556743658
4058900 60 17895185610746164707
4340502 62 16153718582816466608
5171179 24 18055913448780877281
5252454 2 18335974290382021265
563151 40 18408611357297317731
59755656 215 18272934903441427292
59755656 520 18343021065068663461

> <PUBCHEM_SHAPE_MULTIPOLES>
591.59
15.98
3.86
1.58
6.17
3.52
0.24
-8.01
5.58
-6.88
0.49
1.28
0.28
-2.44

> <PUBCHEM_SHAPE_SELFOVERLAP>
1265.233

> <PUBCHEM_SHAPE_VOLUME>
328

> <PUBCHEM_COORDINATE_TYPE>
2
5
10

$$$$
