26744592
  -OEChem-12032416293D

 45 48  0     1  0  0  0  0  0999 V2000
    3.5293    0.8282   -2.3144 Cl  0  0  0  0  0  0  0  0  0  0  0  0
    5.1328   -0.7850    2.2011 F   0  0  0  0  0  0  0  0  0  0  0  0
   -5.8032    1.3274    1.6359 O   0  0  0  0  0  0  0  0  0  0  0  0
   -1.3060    0.7459   -2.1544 O   0  0  0  0  0  0  0  0  0  0  0  0
   -2.9800   -0.6140    0.6202 N   0  0  1  0  0  0  0  0  0  0  0  0
   -0.7916    1.5181   -0.1158 N   0  0  0  0  0  0  0  0  0  0  0  0
   -0.0295    1.3121   -2.2630 N   0  0  0  0  0  0  0  0  0  0  0  0
    1.0297   -2.1863    0.6314 N   0  0  0  0  0  0  0  0  0  0  0  0
   -3.0446    0.3724   -0.4773 C   0  0  1  0  0  0  0  0  0  0  0  0
   -3.9955    1.4700    0.0352 C   0  0  0  0  0  0  0  0  0  0  0  0
   -4.4489    0.9896    1.4082 C   0  0  2  0  0  0  0  0  0  0  0  0
   -4.2462   -0.5122    1.3433 C   0  0  0  0  0  0  0  0  0  0  0  0
   -2.7199   -1.9711    0.1582 C   0  0  0  0  0  0  0  0  0  0  0  0
   -1.6814    0.9099   -0.8589 C   0  0  0  0  0  0  0  0  0  0  0  0
   -1.2609   -2.1913   -0.1417 C   0  0  0  0  0  0  0  0  0  0  0  0
    0.2041    1.7453   -1.0207 C   0  0  0  0  0  0  0  0  0  0  0  0
   -0.8405   -2.5839   -1.4076 C   0  0  0  0  0  0  0  0  0  0  0  0
   -0.2948   -2.0075    0.8344 C   0  0  0  0  0  0  0  0  0  0  0  0
    1.4540    2.4211   -0.6552 C   0  0  0  0  0  0  0  0  0  0  0  0
    0.5139   -2.7779   -1.6552 C   0  0  0  0  0  0  0  0  0  0  0  0
    2.4598    1.5471    0.0874 C   0  0  0  0  0  0  0  0  0  0  0  0
    1.4006   -2.5678   -0.6115 C   0  0  0  0  0  0  0  0  0  0  0  0
    3.4227    0.8004   -0.5918 C   0  0  0  0  0  0  0  0  0  0  0  0
    2.4004    1.5063    1.4805 C   0  0  0  0  0  0  0  0  0  0  0  0
    4.3259    0.0128    0.1222 C   0  0  0  0  0  0  0  0  0  0  0  0
    3.3034    0.7185    2.1944 C   0  0  0  0  0  0  0  0  0  0  0  0
    4.2662   -0.0282    1.5152 C   0  0  0  0  0  0  0  0  0  0  0  0
   -3.5108   -0.0698   -1.3690 H   0  0  0  0  0  0  0  0  0  0  0  0
   -3.5235    2.4560    0.1145 H   0  0  0  0  0  0  0  0  0  0  0  0
   -4.8517    1.5761   -0.6428 H   0  0  0  0  0  0  0  0  0  0  0  0
   -3.8296    1.4322    2.1981 H   0  0  0  0  0  0  0  0  0  0  0  0
   -4.1878   -0.9489    2.3458 H   0  0  0  0  0  0  0  0  0  0  0  0
   -5.0756   -0.9958    0.8101 H   0  0  0  0  0  0  0  0  0  0  0  0
   -3.3499   -2.2371   -0.7007 H   0  0  0  0  0  0  0  0  0  0  0  0
   -2.9784   -2.6903    0.9481 H   0  0  0  0  0  0  0  0  0  0  0  0
   -5.8745    2.2960    1.5896 H   0  0  0  0  0  0  0  0  0  0  0  0
   -1.5570   -2.7392   -2.2094 H   0  0  0  0  0  0  0  0  0  0  0  0
   -0.5581   -1.7047    1.8432 H   0  0  0  0  0  0  0  0  0  0  0  0
    1.2089    3.2792   -0.0132 H   0  0  0  0  0  0  0  0  0  0  0  0
    1.9238    2.8845   -1.5312 H   0  0  0  0  0  0  0  0  0  0  0  0
    0.8646   -3.0822   -2.6346 H   0  0  0  0  0  0  0  0  0  0  0  0
    2.4674   -2.7055   -0.7533 H   0  0  0  0  0  0  0  0  0  0  0  0
    1.6543    2.0804    2.0237 H   0  0  0  0  0  0  0  0  0  0  0  0
    5.0818   -0.5754   -0.3917 H   0  0  0  0  0  0  0  0  0  0  0  0
    3.2565    0.6854    3.2789 H   0  0  0  0  0  0  0  0  0  0  0  0
  1 23  1  0  0  0  0
  2 27  1  0  0  0  0
  3 11  1  0  0  0  0
  3 36  1  0  0  0  0
  4  7  1  0  0  0  0
  4 14  1  0  0  0  0
  5  9  1  0  0  0  0
  5 12  1  0  0  0  0
  5 13  1  0  0  0  0
  6 14  2  0  0  0  0
  6 16  1  0  0  0  0
  7 16  2  0  0  0  0
  8 18  1  0  0  0  0
  8 22  2  0  0  0  0
  9 10  1  0  0  0  0
  9 14  1  0  0  0  0
  9 28  1  0  0  0  0
 10 11  1  0  0  0  0
 10 29  1  0  0  0  0
 10 30  1  0  0  0  0
 11 12  1  0  0  0  0
 11 31  1  0  0  0  0
 12 32  1  0  0  0  0
 12 33  1  0  0  0  0
 13 15  1  0  0  0  0
 13 34  1  0  0  0  0
 13 35  1  0  0  0  0
 15 17  1  0  0  0  0
 15 18  2  0  0  0  0
 16 19  1  0  0  0  0
 17 20  2  0  0  0  0
 17 37  1  0  0  0  0
 18 38  1  0  0  0  0
 19 21  1  0  0  0  0
 19 39  1  0  0  0  0
 19 40  1  0  0  0  0
 20 22  1  0  0  0  0
 20 41  1  0  0  0  0
 21 23  2  0  0  0  0
 21 24  1  0  0  0  0
 22 42  1  0  0  0  0
 23 25  1  0  0  0  0
 24 26  2  0  0  0  0
 24 43  1  0  0  0  0
 25 27  2  0  0  0  0
 25 44  1  0  0  0  0
 26 27  1  0  0  0  0
 26 45  1  0  0  0  0
M  END
> <PUBCHEM_COMPOUND_CID>
26744592

> <PUBCHEM_CONFORMER_RMSD>
1.4

> <PUBCHEM_CONFORMER_DIVERSEORDER>
1
56
48
28
8
46
7
17
50
30
35
44
23
18
58
43
32
57
40
33
25
53
45
37
55
16
2
31
49
22
39
38
13
54
41
4
14
51
29
47
5
9
52
34
27
36
42
3
19
21
10
12
26
20
24
15
6
11

> <PUBCHEM_MMFF94_PARTIAL_CHARGES>
34
1 -0.18
11 0.28
12 0.27
13 0.41
14 0.3
15 -0.14
16 0.34
17 -0.15
18 0.16
19 0.32
2 -0.19
20 -0.15
21 -0.14
22 0.16
23 0.18
24 -0.15
25 -0.15
26 -0.15
27 0.19
3 -0.68
36 0.4
37 0.15
38 0.15
4 -0.02
41 0.15
42 0.15
43 0.15
44 0.15
45 0.15
5 -0.81
6 -0.57
7 -0.41
8 -0.62
9 0.45

> <PUBCHEM_EFFECTIVE_ROTOR_COUNT>
6

> <PUBCHEM_PHARMACOPHORE_FEATURES>
9
1 3 acceptor
1 3 donor
1 5 cation
1 8 acceptor
3 6 7 16 cation
5 4 6 7 14 16 rings
5 5 9 10 11 12 rings
6 21 23 24 25 26 27 rings
6 8 15 17 18 20 22 rings

> <PUBCHEM_HEAVY_ATOM_COUNT>
27

> <PUBCHEM_ATOM_DEF_STEREO_COUNT>
2

> <PUBCHEM_ATOM_UDEF_STEREO_COUNT>
0

> <PUBCHEM_BOND_DEF_STEREO_COUNT>
0

> <PUBCHEM_BOND_UDEF_STEREO_COUNT>
0

> <PUBCHEM_ISOTOPIC_ATOM_COUNT>
0

> <PUBCHEM_COMPONENT_COUNT>
1

> <PUBCHEM_CACTVS_TAUTO_COUNT>
1

> <PUBCHEM_CONFORMER_ID>
0198171000000001

> <PUBCHEM_MMFF94_ENERGY>
55.9278

> <PUBCHEM_FEATURE_SELFOVERLAP>
45.672

> <PUBCHEM_SHAPE_FINGERPRINT>
11370993 70 18131629010519047755
11578080 2 16805881767765802135
11582403 64 16774069661894440201
11725454 13 16917069958170245161
12156800 1 14495312159711307970
12422481 6 18335134246154760858
12633257 1 18335417984542254489
12788726 201 17623288690314626023
13140716 1 18337670943992075233
13692114 37 18201159953540456855
13726171 33 17975448946103819196
15537594 2 17821733861975918080
16110190 28 18334849559312698032
17349148 13 18263080088797687823
20261772 1 18260821618514423112
20691752 17 17821736026565874647
22182313 1 18043249033845239365
23559900 14 18129681788628137388
2818148 4 17604711217503503138
35225 105 17413887744270625895
4340502 62 18131078121630216089
465052 167 17603876615105587561
513532 50 17560811965665072583
5265222 85 17980229640109959548
6287921 2 17986676961219785767
7064713 232 18342455962924800211
9862522 239 18337095818207069149

> <PUBCHEM_SHAPE_MULTIPOLES>
518.58
9.14
3.08
2.19
2.72
2.1
-0.15
-3.7
5.64
0.56
-0.72
-1.6
-0.38
-0.55

> <PUBCHEM_SHAPE_SELFOVERLAP>
1116.174

> <PUBCHEM_SHAPE_VOLUME>
288.9

> <PUBCHEM_COORDINATE_TYPE>
2
5
10

$$$$
