7673867
  -OEChem-12032416213D

 57 61  0     1  0  0  0  0  0999 V2000
    1.7969    1.0523    1.8989 O   0  0  0  0  0  0  0  0  0  0  0  0
   -2.8414    0.7168    0.0274 N   0  0  2  0  0  0  0  0  0  0  0  0
    0.1311    1.7954    0.4444 N   0  0  0  0  0  0  0  0  0  0  0  0
   -4.5972   -3.1538    0.0314 N   0  0  0  0  0  0  0  0  0  0  0  0
    5.0558   -4.3454    0.2132 N   0  0  0  0  0  0  0  0  0  0  0  0
   -2.0945    2.7640    1.2673 C   0  0  1  0  0  0  0  0  0  0  0  0
   -1.6615    2.5869   -1.1361 C   0  0  2  0  0  0  0  0  0  0  0  0
   -2.0580    3.5608   -0.0300 C   0  0  0  0  0  0  0  0  0  0  0  0
   -3.1197    1.6157    1.1543 C   0  0  0  0  0  0  0  0  0  0  0  0
   -2.7157    1.4607   -1.2350 C   0  0  0  0  0  0  0  0  0  0  0  0
   -3.8623   -0.3233   -0.0777 C   0  0  0  0  0  0  0  0  0  0  0  0
   -0.6785    2.2614    1.5793 C   0  0  0  0  0  0  0  0  0  0  0  0
   -0.2854    2.0039   -0.8731 C   0  0  0  0  0  0  0  0  0  0  0  0
   -3.9791   -1.0864    1.2442 C   0  0  0  0  0  0  0  0  0  0  0  0
   -3.5387   -1.2960   -1.2155 C   0  0  0  0  0  0  0  0  0  0  0  0
   -4.9732   -2.2446    1.1231 C   0  0  0  0  0  0  0  0  0  0  0  0
   -4.5467   -2.4475   -1.2563 C   0  0  0  0  0  0  0  0  0  0  0  0
    0.5191    1.6725   -1.8959 C   0  0  0  0  0  0  0  0  0  0  0  0
    1.3828    1.2251    0.7514 C   0  0  0  0  0  0  0  0  0  0  0  0
    2.2444    0.8350   -0.4179 C   0  0  0  0  0  0  0  0  0  0  0  0
    1.8034    1.0751   -1.6614 C   0  0  0  0  0  0  0  0  0  0  0  0
   -5.5268   -4.2807   -0.0392 C   0  0  0  0  0  0  0  0  0  0  0  0
    3.5183    0.2210   -0.2112 C   0  0  0  0  0  0  0  0  0  0  0  0
    3.6209   -1.1680   -0.1339 C   0  0  0  0  0  0  0  0  0  0  0  0
    4.6603    1.0123   -0.0847 C   0  0  0  0  0  0  0  0  0  0  0  0
    4.8648   -1.7655    0.0697 C   0  0  0  0  0  0  0  0  0  0  0  0
    5.9043    0.4148    0.1187 C   0  0  0  0  0  0  0  0  0  0  0  0
    6.0065   -0.9741    0.1960 C   0  0  0  0  0  0  0  0  0  0  0  0
    4.9702   -3.1886    0.1488 C   0  0  0  0  0  0  0  0  0  0  0  0
   -2.4171    3.4166    2.0883 H   0  0  0  0  0  0  0  0  0  0  0  0
   -1.6537    3.1371   -2.0864 H   0  0  0  0  0  0  0  0  0  0  0  0
   -1.3427    4.3897    0.0405 H   0  0  0  0  0  0  0  0  0  0  0  0
   -3.0411    4.0000   -0.2388 H   0  0  0  0  0  0  0  0  0  0  0  0
   -3.0669    1.0873    2.1111 H   0  0  0  0  0  0  0  0  0  0  0  0
   -4.1266    2.0458    1.0666 H   0  0  0  0  0  0  0  0  0  0  0  0
   -3.6812    1.8960   -1.5266 H   0  0  0  0  0  0  0  0  0  0  0  0
   -2.3897    0.8097   -2.0524 H   0  0  0  0  0  0  0  0  0  0  0  0
   -4.8384    0.1369   -0.2910 H   0  0  0  0  0  0  0  0  0  0  0  0
   -0.1076    3.0854    2.0294 H   0  0  0  0  0  0  0  0  0  0  0  0
   -0.7075    1.4677    2.3365 H   0  0  0  0  0  0  0  0  0  0  0  0
   -4.3567   -0.4536    2.0540 H   0  0  0  0  0  0  0  0  0  0  0  0
   -3.0001   -1.4756    1.5548 H   0  0  0  0  0  0  0  0  0  0  0  0
   -2.5244   -1.7010   -1.0990 H   0  0  0  0  0  0  0  0  0  0  0  0
   -3.5889   -0.8112   -2.1959 H   0  0  0  0  0  0  0  0  0  0  0  0
   -5.9857   -1.8479    0.9700 H   0  0  0  0  0  0  0  0  0  0  0  0
   -4.9783   -2.7910    2.0743 H   0  0  0  0  0  0  0  0  0  0  0  0
   -4.2393   -3.1422   -2.0475 H   0  0  0  0  0  0  0  0  0  0  0  0
   -5.5378   -2.0611   -1.5292 H   0  0  0  0  0  0  0  0  0  0  0  0
    0.2162    1.8183   -2.9275 H   0  0  0  0  0  0  0  0  0  0  0  0
    2.3898    0.8145   -2.5378 H   0  0  0  0  0  0  0  0  0  0  0  0
   -6.5530   -3.9589   -0.2506 H   0  0  0  0  0  0  0  0  0  0  0  0
   -5.5276   -4.8386    0.9038 H   0  0  0  0  0  0  0  0  0  0  0  0
   -5.2187   -4.9855   -0.8195 H   0  0  0  0  0  0  0  0  0  0  0  0
    2.7305   -1.7872   -0.2310 H   0  0  0  0  0  0  0  0  0  0  0  0
    4.5985    2.0966   -0.1410 H   0  0  0  0  0  0  0  0  0  0  0  0
    6.7930    1.0312    0.2174 H   0  0  0  0  0  0  0  0  0  0  0  0
    6.9831   -1.4250    0.3551 H   0  0  0  0  0  0  0  0  0  0  0  0
  1 19  2  0  0  0  0
  2  9  1  0  0  0  0
  2 10  1  0  0  0  0
  2 11  1  0  0  0  0
  3 12  1  0  0  0  0
  3 13  1  0  0  0  0
  3 19  1  0  0  0  0
  4 16  1  0  0  0  0
  4 17  1  0  0  0  0
  4 22  1  0  0  0  0
  5 29  3  0  0  0  0
  6  8  1  0  0  0  0
  6  9  1  0  0  0  0
  6 12  1  0  0  0  0
  6 30  1  0  0  0  0
  7  8  1  0  0  0  0
  7 10  1  0  0  0  0
  7 13  1  0  0  0  0
  7 31  1  0  0  0  0
  8 32  1  0  0  0  0
  8 33  1  0  0  0  0
  9 34  1  0  0  0  0
  9 35  1  0  0  0  0
 10 36  1  0  0  0  0
 10 37  1  0  0  0  0
 11 14  1  0  0  0  0
 11 15  1  0  0  0  0
 11 38  1  0  0  0  0
 12 39  1  0  0  0  0
 12 40  1  0  0  0  0
 13 18  2  0  0  0  0
 14 16  1  0  0  0  0
 14 41  1  0  0  0  0
 14 42  1  0  0  0  0
 15 17  1  0  0  0  0
 15 43  1  0  0  0  0
 15 44  1  0  0  0  0
 16 45  1  0  0  0  0
 16 46  1  0  0  0  0
 17 47  1  0  0  0  0
 17 48  1  0  0  0  0
 18 21  1  0  0  0  0
 18 49  1  0  0  0  0
 19 20  1  0  0  0  0
 20 21  2  0  0  0  0
 20 23  1  0  0  0  0
 21 50  1  0  0  0  0
 22 51  1  0  0  0  0
 22 52  1  0  0  0  0
 22 53  1  0  0  0  0
 23 24  1  0  0  0  0
 23 25  2  0  0  0  0
 24 26  2  0  0  0  0
 24 54  1  0  0  0  0
 25 27  1  0  0  0  0
 25 55  1  0  0  0  0
 26 28  1  0  0  0  0
 26 29  1  0  0  0  0
 27 28  2  0  0  0  0
 27 56  1  0  0  0  0
 28 57  1  0  0  0  0
M  END
> <PUBCHEM_COMPOUND_CID>
7673867

> <PUBCHEM_CONFORMER_RMSD>
0.8

> <PUBCHEM_CONFORMER_DIVERSEORDER>
3
15
13
12
14
6
17
4
7
9
16
2
5
11
1
8
10

> <PUBCHEM_MMFF94_PARTIAL_CHARGES>
31
1 -0.57
10 0.27
11 0.27
12 0.3
13 -0.03
16 0.27
17 0.27
18 -0.15
19 0.62
2 -0.81
20 -0.01
21 -0.15
22 0.27
23 0.03
24 -0.15
25 -0.15
26 0.07
27 -0.15
28 -0.15
29 0.48
3 -0.47
4 -0.81
49 0.15
5 -0.56
50 0.15
54 0.15
55 0.15
56 0.15
57 0.15
7 0.14
9 0.27

> <PUBCHEM_EFFECTIVE_ROTOR_COUNT>
4.2

> <PUBCHEM_PHARMACOPHORE_FEATURES>
9
1 1 acceptor
1 2 cation
1 4 cation
1 5 acceptor
6 2 6 7 8 9 10 rings
6 23 24 25 26 27 28 rings
6 3 13 18 19 20 21 rings
6 3 6 7 8 12 13 rings
6 4 11 14 15 16 17 rings

> <PUBCHEM_HEAVY_ATOM_COUNT>
29

> <PUBCHEM_ATOM_DEF_STEREO_COUNT>
2

> <PUBCHEM_ATOM_UDEF_STEREO_COUNT>
0

> <PUBCHEM_BOND_DEF_STEREO_COUNT>
0

> <PUBCHEM_BOND_UDEF_STEREO_COUNT>
0

> <PUBCHEM_ISOTOPIC_ATOM_COUNT>
0

> <PUBCHEM_COMPONENT_COUNT>
1

> <PUBCHEM_CACTVS_TAUTO_COUNT>
1

> <PUBCHEM_CONFORMER_ID>
0075180B00000003

> <PUBCHEM_MMFF94_ENERGY>
68.025

> <PUBCHEM_FEATURE_SELFOVERLAP>
47.226

> <PUBCHEM_SHAPE_FINGERPRINT>
10622 236 18261385620614259626
10928967 22 18127978700898578807
11135609 12 18260272945027083613
11135609 201 8502389845032309615
11497681 19 18409173229830723606
11552529 35 18340487755565198912
117089 54 18190753114063685075
11763715 3 18263103092347879932
11796584 16 18338795594485213420
12422481 6 17987818323135598295
12559416 138 18272079552310934062
12633257 1 16486976258112079661
13103583 49 17632028536682353003
13383661 66 18041565870216357027
13583140 156 17987784221280059760
13631057 29 18410856594542970340
13782708 43 18335981966395745746
13965767 371 11887137426024268905
14251764 30 18337953523313496683
14347329 18 8142096329153615367
14844126 61 18343863299612570593
14848178 5 18335978739751602262
14950920 106 17132115792231041371
15361156 5 17751380395366068004
15728490 83 18336553724657866891
15803439 3 17246362536954509269
17349148 13 16153997855029042928
17492 89 18409449163877758702
17909252 39 18340203093907358506
19315092 285 17558834129268349283
20775438 99 17112678853646996531
20775530 9 18336536227039756275
22393880 68 17385710413857287173
23559900 14 18339347600435489145
24893989 43 16619002534848085263
3737641 26 18343025484284251054
444735 86 18187354433490823730
484985 159 18340769248285702945
5104073 3 18058162835471346976
563151 248 18122646975979030073
56638632 33 17191489119673521698
6371380 46 17049103467424486636
6431902 208 18409165532437452070
66674814 147 17822012025527985154
7970288 3 18265897050199119023
9981440 41 16340879522260463349

> <PUBCHEM_SHAPE_MULTIPOLES>
571.01
13.9
4.99
1.5
8.95
4.24
0.06
17.2
-1.07
-3.71
-0.24
-0.97
-0.76
-0.67

> <PUBCHEM_SHAPE_SELFOVERLAP>
1244.166

> <PUBCHEM_SHAPE_VOLUME>
302.8

> <PUBCHEM_COORDINATE_TYPE>
2
5
10

$$$$
