7113917
  -OEChem-12032416113D

 58 62  0     1  0  0  0  0  0999 V2000
   -6.8096   -3.3278    0.9215 Cl  0  0  0  0  0  0  0  0  0  0  0  0
   -3.1758    1.4000   -0.9726 S   0  0  0  0  0  0  0  0  0  0  0  0
   -0.8362    3.4638   -1.0308 O   0  0  0  0  0  0  0  0  0  0  0  0
    2.8329    0.1277   -2.5328 O   0  0  0  0  0  0  0  0  0  0  0  0
   -4.0240    2.3402   -1.6807 O   0  0  0  0  0  0  0  0  0  0  0  0
   -2.0194    0.8207   -1.6298 O   0  0  0  0  0  0  0  0  0  0  0  0
    2.6866   -5.7627    0.6204 O   0  0  0  0  0  0  0  0  0  0  0  0
    4.5835   -4.7868   -0.1643 O   0  0  0  0  0  0  0  0  0  0  0  0
    3.4207    0.9208   -0.4114 N   0  0  0  0  0  0  0  0  0  0  0  0
    0.9533    2.7763    0.3162 N   0  0  0  0  0  0  0  0  0  0  0  0
   -2.7141    2.0582    0.5168 N   0  0  0  0  0  0  0  0  0  0  0  0
    3.3883    3.3983   -0.1733 C   0  0  1  0  0  0  0  0  0  0  0  0
    2.8543    1.9755    1.7643 C   0  0  2  0  0  0  0  0  0  0  0  0
    3.5809    3.2482    1.3321 C   0  0  0  0  0  0  0  0  0  0  0  0
    3.9697    2.1801   -0.9136 C   0  0  0  0  0  0  0  0  0  0  0  0
    1.8946    3.5915   -0.4632 C   0  0  0  0  0  0  0  0  0  0  0  0
    3.4761    0.7584    1.0505 C   0  0  0  0  0  0  0  0  0  0  0  0
    1.3737    2.0552    1.4422 C   0  0  0  0  0  0  0  0  0  0  0  0
    0.4790    1.4066    2.2102 C   0  0  0  0  0  0  0  0  0  0  0  0
   -0.4038    2.8371   -0.0643 C   0  0  0  0  0  0  0  0  0  0  0  0
    2.8821   -0.0022   -1.3109 C   0  0  0  0  0  0  0  0  0  0  0  0
   -1.3389    2.0822    0.8073 C   0  0  0  0  0  0  0  0  0  0  0  0
   -0.9215    1.4173    1.8852 C   0  0  0  0  0  0  0  0  0  0  0  0
    2.3014   -1.2338   -0.7663 C   0  0  0  0  0  0  0  0  0  0  0  0
    3.1015   -2.3606   -0.5943 C   0  0  0  0  0  0  0  0  0  0  0  0
    0.9521   -1.2706   -0.4242 C   0  0  0  0  0  0  0  0  0  0  0  0
    2.5486   -3.5318   -0.0766 C   0  0  0  0  0  0  0  0  0  0  0  0
    0.3991   -2.4418    0.0934 C   0  0  0  0  0  0  0  0  0  0  0  0
   -4.2031    0.0636   -0.4372 C   0  0  0  0  0  0  0  0  0  0  0  0
    1.1974   -3.5723    0.2673 C   0  0  0  0  0  0  0  0  0  0  0  0
   -5.5571    0.2837   -0.2572 C   0  0  0  0  0  0  0  0  0  0  0  0
   -3.6326   -1.1761   -0.2086 C   0  0  0  0  0  0  0  0  0  0  0  0
    3.3804   -4.7108    0.1053 C   0  0  0  0  0  0  0  0  0  0  0  0
   -6.3672   -0.7705    0.1651 C   0  0  0  0  0  0  0  0  0  0  0  0
   -4.4428   -2.2302    0.2137 C   0  0  0  0  0  0  0  0  0  0  0  0
   -5.8101   -2.0274    0.4006 C   0  0  0  0  0  0  0  0  0  0  0  0
    3.9256    4.2874   -0.5257 H   0  0  0  0  0  0  0  0  0  0  0  0
    2.9932    1.8521    2.8462 H   0  0  0  0  0  0  0  0  0  0  0  0
    3.1832    4.1229    1.8618 H   0  0  0  0  0  0  0  0  0  0  0  0
    4.6481    3.1822    1.5765 H   0  0  0  0  0  0  0  0  0  0  0  0
    3.7989    2.2752   -1.9912 H   0  0  0  0  0  0  0  0  0  0  0  0
    5.0552    2.1354   -0.7622 H   0  0  0  0  0  0  0  0  0  0  0  0
    1.6277    4.6354   -0.2486 H   0  0  0  0  0  0  0  0  0  0  0  0
    1.6871    3.4412   -1.5301 H   0  0  0  0  0  0  0  0  0  0  0  0
    4.5360    0.6670    1.3185 H   0  0  0  0  0  0  0  0  0  0  0  0
    2.9879   -0.1633    1.3763 H   0  0  0  0  0  0  0  0  0  0  0  0
    0.7858    0.8312    3.0772 H   0  0  0  0  0  0  0  0  0  0  0  0
   -1.5929    0.8615    2.5311 H   0  0  0  0  0  0  0  0  0  0  0  0
   -3.2861    1.7519    1.3166 H   0  0  0  0  0  0  0  0  0  0  0  0
    4.1540   -2.3181   -0.8652 H   0  0  0  0  0  0  0  0  0  0  0  0
    0.3217   -0.3977   -0.5615 H   0  0  0  0  0  0  0  0  0  0  0  0
   -0.6501   -2.4758    0.3673 H   0  0  0  0  0  0  0  0  0  0  0  0
    0.7262   -4.4624    0.6748 H   0  0  0  0  0  0  0  0  0  0  0  0
   -6.0079    1.2563   -0.4279 H   0  0  0  0  0  0  0  0  0  0  0  0
   -2.5718   -1.3491   -0.3475 H   0  0  0  0  0  0  0  0  0  0  0  0
   -7.4308   -0.5975    0.3084 H   0  0  0  0  0  0  0  0  0  0  0  0
   -3.9945   -3.2040    0.3938 H   0  0  0  0  0  0  0  0  0  0  0  0
    3.2564   -6.5523    0.7397 H   0  0  0  0  0  0  0  0  0  0  0  0
  1 36  1  0  0  0  0
  2  5  2  0  0  0  0
  2  6  2  0  0  0  0
  2 11  1  0  0  0  0
  2 29  1  0  0  0  0
  3 20  2  0  0  0  0
  4 21  2  0  0  0  0
  7 33  1  0  0  0  0
  7 58  1  0  0  0  0
  8 33  2  0  0  0  0
  9 15  1  0  0  0  0
  9 17  1  0  0  0  0
  9 21  1  0  0  0  0
 10 16  1  0  0  0  0
 10 18  1  0  0  0  0
 10 20  1  0  0  0  0
 11 22  1  0  0  0  0
 11 49  1  0  0  0  0
 12 14  1  0  0  0  0
 12 15  1  0  0  0  0
 12 16  1  0  0  0  0
 12 37  1  0  0  0  0
 13 14  1  0  0  0  0
 13 17  1  0  0  0  0
 13 18  1  0  0  0  0
 13 38  1  0  0  0  0
 14 39  1  0  0  0  0
 14 40  1  0  0  0  0
 15 41  1  0  0  0  0
 15 42  1  0  0  0  0
 16 43  1  0  0  0  0
 16 44  1  0  0  0  0
 17 45  1  0  0  0  0
 17 46  1  0  0  0  0
 18 19  2  0  0  0  0
 19 23  1  0  0  0  0
 19 47  1  0  0  0  0
 20 22  1  0  0  0  0
 21 24  1  0  0  0  0
 22 23  2  0  0  0  0
 23 48  1  0  0  0  0
 24 25  2  0  0  0  0
 24 26  1  0  0  0  0
 25 27  1  0  0  0  0
 25 50  1  0  0  0  0
 26 28  2  0  0  0  0
 26 51  1  0  0  0  0
 27 30  2  0  0  0  0
 27 33  1  0  0  0  0
 28 30  1  0  0  0  0
 28 52  1  0  0  0  0
 29 31  2  0  0  0  0
 29 32  1  0  0  0  0
 30 53  1  0  0  0  0
 31 34  1  0  0  0  0
 31 54  1  0  0  0  0
 32 35  2  0  0  0  0
 32 55  1  0  0  0  0
 34 36  2  0  0  0  0
 34 56  1  0  0  0  0
 35 36  1  0  0  0  0
 35 57  1  0  0  0  0
M  END
> <PUBCHEM_COMPOUND_CID>
7113917

> <PUBCHEM_CONFORMER_RMSD>
1

> <PUBCHEM_CONFORMER_DIVERSEORDER>
1
41
43
31
18
55
66
59
8
51
17
40
2
70
61
7
64
34
47
20
60
58
42
63
68
30
33
50
26
12
62
56
29
24
10
16
44
54
48
38
65
25
52
5
71
23
69
36
49
19
53
11
4
6
45
35
67
22
57
27
37
21
32
15
46
3
39
13
14
28
9

> <PUBCHEM_MMFF94_PARTIAL_CHARGES>
46
1 -0.18
10 -0.47
11 -0.75
13 0.14
15 0.3
16 0.3
17 0.3
18 -0.03
19 -0.15
2 1.45
20 0.62
21 0.54
22 0.21
23 -0.15
24 0.09
25 -0.15
26 -0.15
27 0.09
28 -0.15
29 -0.01
3 -0.57
30 -0.15
31 -0.15
32 -0.15
33 0.63
34 -0.15
35 -0.15
36 0.18
4 -0.57
47 0.15
48 0.15
49 0.42
5 -0.65
50 0.15
51 0.15
52 0.15
53 0.15
54 0.15
55 0.15
56 0.15
57 0.15
58 0.5
6 -0.65
7 -0.65
8 -0.57
9 -0.66

> <PUBCHEM_EFFECTIVE_ROTOR_COUNT>
7

> <PUBCHEM_PHARMACOPHORE_FEATURES>
13
1 11 donor
1 3 acceptor
1 4 acceptor
1 5 acceptor
1 6 acceptor
1 7 acceptor
1 8 acceptor
3 7 8 33 anion
6 10 12 13 14 16 18 rings
6 10 18 19 20 22 23 rings
6 24 25 26 27 28 30 rings
6 29 31 32 34 35 36 rings
6 9 12 13 14 15 17 rings

> <PUBCHEM_HEAVY_ATOM_COUNT>
36

> <PUBCHEM_ATOM_DEF_STEREO_COUNT>
2

> <PUBCHEM_ATOM_UDEF_STEREO_COUNT>
0

> <PUBCHEM_BOND_DEF_STEREO_COUNT>
0

> <PUBCHEM_BOND_UDEF_STEREO_COUNT>
0

> <PUBCHEM_ISOTOPIC_ATOM_COUNT>
0

> <PUBCHEM_COMPONENT_COUNT>
1

> <PUBCHEM_CACTVS_TAUTO_COUNT>
1

> <PUBCHEM_CONFORMER_ID>
006C8CBD00000001

> <PUBCHEM_MMFF94_ENERGY>
94.5895

> <PUBCHEM_FEATURE_SELFOVERLAP>
67.633

> <PUBCHEM_SHAPE_FINGERPRINT>
10074138 170 17335301285269838168
10316853 100 18051137187676092031
11014199 57 18051419461427568782
11285246 1 17680438753500316955
11488393 25 18408606967566129835
12104220 1 17691116038399700870
12156800 1 16162124134968792300
131258 43 17985276175460215030
13402501 40 18195810884724899081
1361 2 18121784091163245593
13617811 41 18187643665837477341
13751561 76 17969229013500337979
14114211 68 18190765178467609470
14659021 117 17543903508745203354
15264996 163 17540264142057234603
15968369 26 18263903549665179339
17093844 170 18197499734395707216
17909252 39 18339929224964489130
19319366 153 18199463444813838463
20764821 26 17978220892078770751
20775438 99 17831256624957994021
20775530 9 18200028417728543630
22956985 138 18338792317694387202
23559900 14 18265040341688231869
3737641 26 18342462564753718627
404807 78 17753062875004459251
4280585 95 17977090263423374514
4340502 62 17772469242677189080
4394409 98 16672723015281020389
4461854 278 17543084819212201755
463206 1 17978797800612191280
484989 97 18266474272312599022
508706 21 17907298011495156003
5265222 85 17977387462117639157
86090 222 18196098969672349731

> <PUBCHEM_SHAPE_MULTIPOLES>
696.42
12.06
6.92
1.59
23.45
9.42
0.08
5.15
0.28
-8.25
0.63
-0.69
-1.03
1.81

> <PUBCHEM_SHAPE_SELFOVERLAP>
1512.58

> <PUBCHEM_SHAPE_VOLUME>
379.6

> <PUBCHEM_COORDINATE_TYPE>
2
5
10

$$$$
