11913092
  -OEChem-12032416153D

 60 63  0     1  0  0  0  0  0999 V2000
   -0.1657    0.6895    1.4899 O   0  0  0  0  0  0  0  0  0  0  0  0
   -2.0294    2.4495   -0.1960 O   0  0  0  0  0  0  0  0  0  0  0  0
    1.5327    2.0691   -0.2168 O   0  0  0  0  0  0  0  0  0  0  0  0
    2.1288    0.0039   -0.9974 O   0  0  0  0  0  0  0  0  0  0  0  0
    9.5620   -1.0328    0.2711 O   0  0  0  0  0  0  0  0  0  0  0  0
   -2.8673   -0.8252    1.2184 N   0  0  0  0  0  0  0  0  0  0  0  0
   -4.9620   -0.4104    0.2460 N   0  0  0  0  0  0  0  0  0  0  0  0
   -4.2497   -2.6593    0.7382 N   0  0  0  0  0  0  0  0  0  0  0  0
    3.6865    1.4368    0.0032 N   0  0  0  0  0  0  0  0  0  0  0  0
   -1.9323    1.0162   -0.0578 C   0  0  1  0  0  0  0  0  0  0  0  0
   -0.4594    0.6877    0.0834 C   0  0  1  0  0  0  0  0  0  0  0  0
   -2.5314    0.5820    1.2592 C   0  0  2  0  0  0  0  0  0  0  0  0
    0.2032    1.8433   -0.6275 C   0  0  1  0  0  0  0  0  0  0  0  0
   -1.3887    0.8231    2.2303 C   0  0  0  0  0  0  0  0  0  0  0  0
   -0.7058    2.9986   -0.2737 C   0  0  0  0  0  0  0  0  0  0  0  0
   -4.0622   -1.3130    0.7192 C   0  0  0  0  0  0  0  0  0  0  0  0
    2.4399    1.0576   -0.4556 C   0  0  0  0  0  0  0  0  0  0  0  0
   -7.1146    0.0561   -0.7568 C   0  0  0  0  0  0  0  0  0  0  0  0
   -6.1155   -0.9204   -0.2332 C   0  0  0  0  0  0  0  0  0  0  0  0
   -6.4048   -2.2694   -0.2601 C   0  0  0  0  0  0  0  0  0  0  0  0
   -5.4251   -3.1002    0.2439 C   0  0  0  0  0  0  0  0  0  0  0  0
   -6.6871    1.5592   -0.6809 C   0  0  0  0  0  0  0  0  0  0  0  0
   -7.4311   -0.2103   -2.2609 C   0  0  0  0  0  0  0  0  0  0  0  0
   -8.4587   -0.0338    0.0301 C   0  0  0  0  0  0  0  0  0  0  0  0
    4.8922    0.7006   -0.0437 C   0  0  0  0  0  0  0  0  0  0  0  0
    4.8939   -0.5658   -0.6066 C   0  0  0  0  0  0  0  0  0  0  0  0
    6.0494    1.2598    0.4745 C   0  0  0  0  0  0  0  0  0  0  0  0
    6.0839   -1.2920   -0.6524 C   0  0  0  0  0  0  0  0  0  0  0  0
    7.2395    0.5337    0.4286 C   0  0  0  0  0  0  0  0  0  0  0  0
    7.2567   -0.7422   -0.1348 C   0  0  0  0  0  0  0  0  0  0  0  0
    8.4978   -1.4984   -0.1832 C   0  0  0  0  0  0  0  0  0  0  0  0
    8.5246   -2.8935   -0.7987 C   0  0  0  0  0  0  0  0  0  0  0  0
   -2.3891    0.5695   -0.9466 H   0  0  0  0  0  0  0  0  0  0  0  0
   -0.2087   -0.3015   -0.3086 H   0  0  0  0  0  0  0  0  0  0  0  0
   -3.3970    1.1791    1.5686 H   0  0  0  0  0  0  0  0  0  0  0  0
    0.1657    1.6892   -1.7144 H   0  0  0  0  0  0  0  0  0  0  0  0
   -1.3742    0.1331    3.0798 H   0  0  0  0  0  0  0  0  0  0  0  0
   -1.4179    1.8462    2.6211 H   0  0  0  0  0  0  0  0  0  0  0  0
   -0.6814    3.7924   -1.0263 H   0  0  0  0  0  0  0  0  0  0  0  0
   -0.4514    3.4480    0.6928 H   0  0  0  0  0  0  0  0  0  0  0  0
   -2.1829   -1.5095    1.5200 H   0  0  0  0  0  0  0  0  0  0  0  0
    3.7467    2.3592    0.4278 H   0  0  0  0  0  0  0  0  0  0  0  0
   -7.3299   -2.6781   -0.6444 H   0  0  0  0  0  0  0  0  0  0  0  0
   -5.5621   -4.1761    0.2647 H   0  0  0  0  0  0  0  0  0  0  0  0
   -5.7694    1.7347   -1.2546 H   0  0  0  0  0  0  0  0  0  0  0  0
   -7.4634    2.2215   -1.0810 H   0  0  0  0  0  0  0  0  0  0  0  0
   -6.4931    1.8594    0.3555 H   0  0  0  0  0  0  0  0  0  0  0  0
   -6.5184   -0.1549   -2.8660 H   0  0  0  0  0  0  0  0  0  0  0  0
   -8.1415    0.5256   -2.6550 H   0  0  0  0  0  0  0  0  0  0  0  0
   -7.8720   -1.2008   -2.4176 H   0  0  0  0  0  0  0  0  0  0  0  0
   -8.2968    0.1507    1.0987 H   0  0  0  0  0  0  0  0  0  0  0  0
   -8.9256   -1.0200   -0.0681 H   0  0  0  0  0  0  0  0  0  0  0  0
   -9.1832    0.7044   -0.3331 H   0  0  0  0  0  0  0  0  0  0  0  0
    4.0275   -1.0560   -1.0262 H   0  0  0  0  0  0  0  0  0  0  0  0
    6.0468    2.2528    0.9155 H   0  0  0  0  0  0  0  0  0  0  0  0
    6.0542   -2.2810   -1.0992 H   0  0  0  0  0  0  0  0  0  0  0  0
    8.1400    0.9836    0.8382 H   0  0  0  0  0  0  0  0  0  0  0  0
    8.2417   -2.8470   -1.8534 H   0  0  0  0  0  0  0  0  0  0  0  0
    7.8669   -3.5654   -0.2413 H   0  0  0  0  0  0  0  0  0  0  0  0
    9.5427   -3.2912   -0.7391 H   0  0  0  0  0  0  0  0  0  0  0  0
  1 11  1  0  0  0  0
  1 14  1  0  0  0  0
  2 10  1  0  0  0  0
  2 15  1  0  0  0  0
  3 13  1  0  0  0  0
  3 17  1  0  0  0  0
  4 17  2  0  0  0  0
  5 31  2  0  0  0  0
  6 12  1  0  0  0  0
  6 16  1  0  0  0  0
  6 41  1  0  0  0  0
  7 16  1  0  0  0  0
  7 19  2  0  0  0  0
  8 16  2  0  0  0  0
  8 21  1  0  0  0  0
  9 17  1  0  0  0  0
  9 25  1  0  0  0  0
  9 42  1  0  0  0  0
 10 11  1  0  0  0  0
 10 12  1  0  0  0  0
 10 33  1  0  0  0  0
 11 13  1  0  0  0  0
 11 34  1  0  0  0  0
 12 14  1  0  0  0  0
 12 35  1  0  0  0  0
 13 15  1  0  0  0  0
 13 36  1  0  0  0  0
 14 37  1  0  0  0  0
 14 38  1  0  0  0  0
 15 39  1  0  0  0  0
 15 40  1  0  0  0  0
 18 19  1  0  0  0  0
 18 22  1  0  0  0  0
 18 23  1  0  0  0  0
 18 24  1  0  0  0  0
 19 20  1  0  0  0  0
 20 21  2  0  0  0  0
 20 43  1  0  0  0  0
 21 44  1  0  0  0  0
 22 45  1  0  0  0  0
 22 46  1  0  0  0  0
 22 47  1  0  0  0  0
 23 48  1  0  0  0  0
 23 49  1  0  0  0  0
 23 50  1  0  0  0  0
 24 51  1  0  0  0  0
 24 52  1  0  0  0  0
 24 53  1  0  0  0  0
 25 26  2  0  0  0  0
 25 27  1  0  0  0  0
 26 28  1  0  0  0  0
 26 54  1  0  0  0  0
 27 29  2  0  0  0  0
 27 55  1  0  0  0  0
 28 30  2  0  0  0  0
 28 56  1  0  0  0  0
 29 30  1  0  0  0  0
 29 57  1  0  0  0  0
 30 31  1  0  0  0  0
 31 32  1  0  0  0  0
 32 58  1  0  0  0  0
 32 59  1  0  0  0  0
 32 60  1  0  0  0  0
M  END
> <PUBCHEM_COMPOUND_CID>
11913092

> <PUBCHEM_CONFORMER_RMSD>
1

> <PUBCHEM_CONFORMER_DIVERSEORDER>
1
157
11
38
47
121
37
60
72
133
74
196
178
158
39
122
36
99
8
54
23
45
77
66
199
194
146
147
27
139
143
105
115
51
208
198
109
55
68
189
89
185
78
80
180
176
183
164
81
163
152
4
75
110
108
134
104
25
30
177
84
138
112
59
187
103
206
127
100
202
2
71
125
159
22
205
130
119
58
197
70
52
155
9
128
175
107
26
113
14
204
136
190
35
90
117
41
82
200
88
87
116
69
123
201
162
24
65
171
167
145
120
34
86
85
94
203
18
153
154
173
49
95
102
6
33
93
131
166
174
168
98
188
184
195
76
114
144
179
5
193
12
56
91
96
140
92
29
40
191
182
31
165
50
192
186
137
172
43
97
21
141
142
67
207
181
126
151
42
83
132
101
46
19
106
44
111
16
73
118
13
124
135
10
148
170
32
79
61
57
150
53
161
17
129
62
7
149
48
63
28
160
169
20
3
64
15
156

> <PUBCHEM_MMFF94_PARTIAL_CHARGES>
37
1 -0.56
10 0.28
11 0.28
12 0.37
13 0.28
14 0.28
15 0.28
16 0.72
17 0.78
18 0.14
19 0.17
2 -0.56
20 -0.15
21 0.16
25 0.12
26 -0.15
27 -0.15
28 -0.15
29 -0.15
3 -0.43
30 0.09
31 0.42
32 0.06
4 -0.57
41 0.4
42 0.37
43 0.15
44 0.15
5 -0.57
54 0.15
55 0.15
56 0.15
57 0.15
6 -0.87
7 -0.62
8 -0.62
9 -0.55

> <PUBCHEM_EFFECTIVE_ROTOR_COUNT>
9.2

> <PUBCHEM_PHARMACOPHORE_FEATURES>
13
1 1 acceptor
1 2 acceptor
1 4 acceptor
1 5 acceptor
1 6 donor
1 7 acceptor
1 9 donor
4 18 22 23 24 hydrophobe
4 6 7 8 16 cation
5 1 10 11 12 14 rings
5 2 10 11 13 15 rings
6 25 26 27 28 29 30 rings
6 7 8 16 19 20 21 rings

> <PUBCHEM_HEAVY_ATOM_COUNT>
32

> <PUBCHEM_ATOM_DEF_STEREO_COUNT>
4

> <PUBCHEM_ATOM_UDEF_STEREO_COUNT>
0

> <PUBCHEM_BOND_DEF_STEREO_COUNT>
0

> <PUBCHEM_BOND_UDEF_STEREO_COUNT>
0

> <PUBCHEM_ISOTOPIC_ATOM_COUNT>
0

> <PUBCHEM_COMPONENT_COUNT>
1

> <PUBCHEM_CACTVS_TAUTO_COUNT>
27

> <PUBCHEM_CONFORMER_ID>
00B5C78400000001

> <PUBCHEM_MMFF94_ENERGY>
106.4373

> <PUBCHEM_FEATURE_SELFOVERLAP>
66.687

> <PUBCHEM_SHAPE_FINGERPRINT>
10 15 11455890256479590788
10369192 42 8286202742906665217
10391435 84 18337948004227520730
10483366 6 18186800279471766315
106641 1 12823294611340586117
10670039 82 18186792575271277341
10674148 151 17603300457753346793
10917259 69 18263358084983517373
11135609 201 10592041332467337436
11135926 11 18408323268419175979
11200772 48 17748827445167342507
11408170 108 18060146396696505367
12120059 9 18199450211999013219
12202916 173 18411420613711932518
12498461 61 18263360305343465762
12643181 29 18408039628620621151
13740195 50 11239990161776185204
13782708 43 18341619201023419778
13811026 1 18412262831244249054
13885169 127 18409448064023486413
13914758 101 17894629253366231201
14279260 333 18343300328653960717
14294032 229 16661477394920431237
14849402 71 9007053569730627255
14856354 85 14996286942612188851
14931854 50 17313105233522767938
15183329 4 14779541309648411894
15188451 53 18343304760701468472
15198563 99 17313096415370062181
15230672 131 18260542338535903211
15419008 91 18263624299113211332
15510794 2 18410852137068446144
15510800 12 18200883894179455174
15604295 49 7997383016202566214
16993089 31 17702680852281941894
1768 4 8718823202036624262
18603816 31 17632567284832938447
18643901 69 18040718043486866996
20028762 73 18413113870778237310
20105231 36 17967823786606464251
2026 5 18341613763263566039
21033648 29 8357961227565348924
212700 22 18341890792901496606
21307412 95 17821739359312641546
22224240 67 12823300104350836101
23559900 14 18268706294245193185
249057 3 18186800314348157125
25019877 29 8790888492862020049
25269216 80 13551768386644511665
3004659 81 17895191142452349760
3711267 37 10737284610899804790
4339292 15 18261391102041899630
439807 62 18411700976839895026
444769 64 18260274040755545017
504579 68 16877948231058615804
5718773 13 18411140242979004066
5758199 1 11455893563462341117
57676310 115 17532927209125895261
59682541 35 12175620698434781983
6009941 240 18186800305632089623
6081469 158 18334575729108566846
6126387 218 18341892987117419433
6138700 20 18334859437247160531
6703917 75 9079116687143639333
9689198 14 8358265847187147322

> <PUBCHEM_SHAPE_MULTIPOLES>
609.27
29.6
2.87
1.26
29.27
0.85
-0.14
19.19
6.74
-0.52
0.16
-1.67
-0.06
1.47

> <PUBCHEM_SHAPE_SELFOVERLAP>
1309.395

> <PUBCHEM_SHAPE_VOLUME>
336.2

> <PUBCHEM_COORDINATE_TYPE>
2
5
10

$$$$
