38029612
  -OEChem-12032416243D

 51 51  0     1  0  0  0  0  0999 V2000
    2.0670   -3.4973    0.2533 O   0  0  0  0  0  0  0  0  0  0  0  0
    3.5018   -1.8977    1.0039 O   0  0  0  0  0  0  0  0  0  0  0  0
   -3.4957    0.7653    0.4503 O   0  0  0  0  0  0  0  0  0  0  0  0
   -2.7446   -2.3157    0.5543 O   0  0  0  0  0  0  0  0  0  0  0  0
   -1.9184    1.0915   -1.2262 N   0  0  0  0  0  0  0  0  0  0  0  0
    0.3601    1.2515    0.7298 C   0  0  1  0  0  0  0  0  0  0  0  0
    0.1028    2.2170   -0.4541 C   0  0  1  0  0  0  0  0  0  0  0  0
    1.8317    0.8107    0.7520 C   0  0  0  0  0  0  0  0  0  0  0  0
    2.2484    0.1055   -0.5525 C   0  0  2  0  0  0  0  0  0  0  0  0
   -0.0113    1.8870    2.0732 C   0  0  0  0  0  0  0  0  0  0  0  0
    1.7896    0.8703   -1.7774 C   0  0  0  0  0  0  0  0  0  0  0  0
    0.8393    1.8197   -1.7119 C   0  0  0  0  0  0  0  0  0  0  0  0
   -1.3955    2.3356   -0.7555 C   0  0  0  0  0  0  0  0  0  0  0  0
    1.7398   -1.3400   -0.5857 C   0  0  0  0  0  0  0  0  0  0  0  0
   -0.3289    0.8074    3.1029 C   0  0  0  0  0  0  0  0  0  0  0  0
    1.1163    2.7888    2.5650 C   0  0  0  0  0  0  0  0  0  0  0  0
    2.4812    0.5508   -3.0735 C   0  0  0  0  0  0  0  0  0  0  0  0
    2.5503   -2.2298    0.3130 C   0  0  0  0  0  0  0  0  0  0  0  0
   -2.9402    0.3936   -0.5799 C   0  0  0  0  0  0  0  0  0  0  0  0
   -3.2969   -0.8955   -1.3028 C   0  0  0  0  0  0  0  0  0  0  0  0
   -2.4841   -2.0888   -0.8248 C   0  0  0  0  0  0  0  0  0  0  0  0
   -2.0126   -3.4299    1.0466 C   0  0  0  0  0  0  0  0  0  0  0  0
   -0.2591    0.3573    0.5946 H   0  0  0  0  0  0  0  0  0  0  0  0
    0.4627    3.2204   -0.1937 H   0  0  0  0  0  0  0  0  0  0  0  0
    2.0379    0.1664    1.6126 H   0  0  0  0  0  0  0  0  0  0  0  0
    2.4955    1.6801    0.8435 H   0  0  0  0  0  0  0  0  0  0  0  0
    3.3475    0.0987   -0.5678 H   0  0  0  0  0  0  0  0  0  0  0  0
   -0.9134    2.4987    1.9698 H   0  0  0  0  0  0  0  0  0  0  0  0
    0.5828    2.3697   -2.6152 H   0  0  0  0  0  0  0  0  0  0  0  0
   -1.5629    3.0680   -1.5546 H   0  0  0  0  0  0  0  0  0  0  0  0
   -1.9609    2.6866    0.1120 H   0  0  0  0  0  0  0  0  0  0  0  0
    0.6933   -1.4024   -0.2778 H   0  0  0  0  0  0  0  0  0  0  0  0
    1.8232   -1.7601   -1.5942 H   0  0  0  0  0  0  0  0  0  0  0  0
    0.5300    0.1604    3.3063 H   0  0  0  0  0  0  0  0  0  0  0  0
   -1.1570    0.1751    2.7645 H   0  0  0  0  0  0  0  0  0  0  0  0
   -0.6303    1.2622    4.0530 H   0  0  0  0  0  0  0  0  0  0  0  0
    1.9866    2.2312    2.9271 H   0  0  0  0  0  0  0  0  0  0  0  0
    0.7606    3.3740    3.4221 H   0  0  0  0  0  0  0  0  0  0  0  0
    1.4390    3.5122    1.8104 H   0  0  0  0  0  0  0  0  0  0  0  0
    3.5649    0.6621   -2.9635 H   0  0  0  0  0  0  0  0  0  0  0  0
    2.1648    1.2174   -3.8830 H   0  0  0  0  0  0  0  0  0  0  0  0
    2.2666   -0.4734   -3.3915 H   0  0  0  0  0  0  0  0  0  0  0  0
   -1.5580    0.7241   -2.1022 H   0  0  0  0  0  0  0  0  0  0  0  0
   -3.1690   -0.7623   -2.3829 H   0  0  0  0  0  0  0  0  0  0  0  0
   -4.3641   -1.0735   -1.1228 H   0  0  0  0  0  0  0  0  0  0  0  0
    2.5723   -4.1089    0.8302 H   0  0  0  0  0  0  0  0  0  0  0  0
   -2.7680   -2.9767   -1.4013 H   0  0  0  0  0  0  0  0  0  0  0  0
   -1.4164   -1.8997   -0.9716 H   0  0  0  0  0  0  0  0  0  0  0  0
   -2.2536   -3.5593    2.1050 H   0  0  0  0  0  0  0  0  0  0  0  0
   -0.9369   -3.2526    0.9534 H   0  0  0  0  0  0  0  0  0  0  0  0
   -2.2930   -4.3415    0.5102 H   0  0  0  0  0  0  0  0  0  0  0  0
  1 18  1  0  0  0  0
  1 46  1  0  0  0  0
  2 18  2  0  0  0  0
  3 19  2  0  0  0  0
  4 21  1  0  0  0  0
  4 22  1  0  0  0  0
  5 13  1  0  0  0  0
  5 19  1  0  0  0  0
  5 43  1  0  0  0  0
  6  7  1  0  0  0  0
  6  8  1  0  0  0  0
  6 10  1  0  0  0  0
  6 23  1  0  0  0  0
  7 12  1  0  0  0  0
  7 13  1  0  0  0  0
  7 24  1  0  0  0  0
  8  9  1  0  0  0  0
  8 25  1  0  0  0  0
  8 26  1  0  0  0  0
  9 11  1  0  0  0  0
  9 14  1  0  0  0  0
  9 27  1  0  0  0  0
 10 15  1  0  0  0  0
 10 16  1  0  0  0  0
 10 28  1  0  0  0  0
 11 12  2  0  0  0  0
 11 17  1  0  0  0  0
 12 29  1  0  0  0  0
 13 30  1  0  0  0  0
 13 31  1  0  0  0  0
 14 18  1  0  0  0  0
 14 32  1  0  0  0  0
 14 33  1  0  0  0  0
 15 34  1  0  0  0  0
 15 35  1  0  0  0  0
 15 36  1  0  0  0  0
 16 37  1  0  0  0  0
 16 38  1  0  0  0  0
 16 39  1  0  0  0  0
 17 40  1  0  0  0  0
 17 41  1  0  0  0  0
 17 42  1  0  0  0  0
 19 20  1  0  0  0  0
 20 21  1  0  0  0  0
 20 44  1  0  0  0  0
 20 45  1  0  0  0  0
 21 47  1  0  0  0  0
 21 48  1  0  0  0  0
 22 49  1  0  0  0  0
 22 50  1  0  0  0  0
 22 51  1  0  0  0  0
M  END
> <PUBCHEM_COMPOUND_CID>
38029612

> <PUBCHEM_CONFORMER_RMSD>
1

> <PUBCHEM_CONFORMER_DIVERSEORDER>
1
21
73
74
55
7
81
72
20
38
6
22
53
15
19
24
68
78
75
32
14
67
45
40
71
33
57
69
43
3
30
48
49
66
60
79
58
9
27
29
25
35
50
13
54
39
44
76
56
61
12
28
4
47
31
64
10
51
70
36
77
59
11
18
37
17
80
23
8
5
41
46
62
2
52
16
65
63
34
42
26

> <PUBCHEM_MMFF94_PARTIAL_CHARGES>
20
1 -0.65
11 -0.28
12 -0.29
13 0.3
14 0.06
17 0.14
18 0.66
19 0.57
2 -0.57
20 0.06
21 0.28
22 0.28
29 0.15
3 -0.57
4 -0.56
43 0.37
46 0.5
5 -0.73
7 0.14
9 0.14

> <PUBCHEM_EFFECTIVE_ROTOR_COUNT>
9.8

> <PUBCHEM_PHARMACOPHORE_FEATURES>
8
1 1 acceptor
1 2 acceptor
1 3 acceptor
1 4 acceptor
1 5 donor
3 1 2 18 anion
3 10 15 16 hydrophobe
6 6 7 8 9 11 12 rings

> <PUBCHEM_HEAVY_ATOM_COUNT>
22

> <PUBCHEM_ATOM_DEF_STEREO_COUNT>
3

> <PUBCHEM_ATOM_UDEF_STEREO_COUNT>
0

> <PUBCHEM_BOND_DEF_STEREO_COUNT>
0

> <PUBCHEM_BOND_UDEF_STEREO_COUNT>
0

> <PUBCHEM_ISOTOPIC_ATOM_COUNT>
0

> <PUBCHEM_COMPONENT_COUNT>
1

> <PUBCHEM_CACTVS_TAUTO_COUNT>
2

> <PUBCHEM_CONFORMER_ID>
0244492C00000001

> <PUBCHEM_MMFF94_ENERGY>
38.7136

> <PUBCHEM_FEATURE_SELFOVERLAP>
40.653

> <PUBCHEM_SHAPE_FINGERPRINT>
10064457 181 16826193380704125659
11578080 2 18267002999624487732
12035759 4 18116458989110173958
121448 382 18048913880976227036
12539773 59 13086974670549265102
12788726 201 17701557107473261169
14022347 108 17558857029664647365
14787075 74 18057874939476622604
20600515 1 17914609449875914164
21330990 113 18049412002656534368
21452121 71 18335700503776312428
23419403 2 17691915546096724892
2818148 4 18115608065736371083
3052486 1 16318079456472710746
35225 105 16768763268254419691
568465 68 17774419621526856340
81228 2 16556226579610409232

> <PUBCHEM_SHAPE_MULTIPOLES>
424.29
4.98
3.93
2.76
3.69
2.67
0.5
2.97
-1.27
-0.41
1.88
-1.42
-1.53
0.37

> <PUBCHEM_SHAPE_SELFOVERLAP>
839.466

> <PUBCHEM_SHAPE_VOLUME>
251.6

> <PUBCHEM_COORDINATE_TYPE>
2
5
10

$$$$
