7156591
  -OEChem-12032416233D

 57 60  0     1  0  0  0  0  0999 V2000
   -1.6343    1.0413    1.0383 O   0  0  0  0  0  0  0  0  0  0  0  0
    1.1729    1.0300   -0.2794 O   0  0  0  0  0  0  0  0  0  0  0  0
   -3.9599   -2.3625    0.8942 O   0  0  0  0  0  0  0  0  0  0  0  0
   -5.7588   -1.6695   -0.3158 O   0  0  0  0  0  0  0  0  0  0  0  0
    4.0420   -2.5725    0.6745 O   0  0  0  0  0  0  0  0  0  0  0  0
   -0.9261   -0.6831   -0.3330 N   0  0  0  0  0  0  0  0  0  0  0  0
    1.8408   -2.9192    0.3029 N   0  0  0  0  0  0  0  0  0  0  0  0
    2.6889   -0.7045    0.1958 N   0  0  0  0  0  0  0  0  0  0  0  0
   -4.2138    0.9547    0.0429 C   0  0  0  0  0  0  0  0  0  0  0  0
   -3.8870    2.3145    0.7054 C   0  0  0  0  0  0  0  0  0  0  0  0
   -5.4505    1.2233   -0.8449 C   0  0  0  0  0  0  0  0  0  0  0  0
   -3.0286    0.4770   -0.8077 C   0  0  0  0  0  0  0  0  0  0  0  0
   -5.0640    3.2250    0.3781 C   0  0  0  0  0  0  0  0  0  0  0  0
   -5.5192    2.7372   -0.9845 C   0  0  0  0  0  0  0  0  0  0  0  0
    0.2482   -1.0587    0.4558 C   0  0  1  0  0  0  0  0  0  0  0  0
    0.5052   -2.4855    0.0193 C   0  0  1  0  0  0  0  0  0  0  0  0
   -4.5326   -0.1093    1.1004 C   0  0  0  0  0  0  0  0  0  0  0  0
    0.1431   -2.4667   -1.4654 C   0  0  0  0  0  0  0  0  0  0  0  0
   -1.0889   -1.5698   -1.4864 C   0  0  0  0  0  0  0  0  0  0  0  0
   -1.8059    0.3134    0.0593 C   0  0  0  0  0  0  0  0  0  0  0  0
    1.3983   -0.1284    0.0792 C   0  0  0  0  0  0  0  0  0  0  0  0
   -4.8508   -1.4314    0.4662 C   0  0  0  0  0  0  0  0  0  0  0  0
    2.9412   -2.0890    0.3914 C   0  0  0  0  0  0  0  0  0  0  0  0
    3.8320    0.1799    0.0900 C   0  0  0  0  0  0  0  0  0  0  0  0
    3.7151    1.5012    0.5003 C   0  0  0  0  0  0  0  0  0  0  0  0
    5.0284   -0.3058   -0.4201 C   0  0  0  0  0  0  0  0  0  0  0  0
    4.8153    2.3527    0.3985 C   0  0  0  0  0  0  0  0  0  0  0  0
    6.1286    0.5456   -0.5217 C   0  0  0  0  0  0  0  0  0  0  0  0
    6.0219    1.8749   -0.1124 C   0  0  0  0  0  0  0  0  0  0  0  0
    7.1985    2.7852   -0.2212 C   0  0  0  0  0  0  0  0  0  0  0  0
   -3.0011    2.7880    0.2643 H   0  0  0  0  0  0  0  0  0  0  0  0
   -3.7404    2.2546    1.7892 H   0  0  0  0  0  0  0  0  0  0  0  0
   -6.3741    0.8863   -0.3577 H   0  0  0  0  0  0  0  0  0  0  0  0
   -5.3978    0.7363   -1.8242 H   0  0  0  0  0  0  0  0  0  0  0  0
   -2.7802    1.2216   -1.5751 H   0  0  0  0  0  0  0  0  0  0  0  0
   -3.2936   -0.4370   -1.3419 H   0  0  0  0  0  0  0  0  0  0  0  0
   -4.7831    4.2821    0.3705 H   0  0  0  0  0  0  0  0  0  0  0  0
   -5.8629    3.0889    1.1168 H   0  0  0  0  0  0  0  0  0  0  0  0
   -6.5248    3.0855   -1.2372 H   0  0  0  0  0  0  0  0  0  0  0  0
   -4.8295    3.0801   -1.7645 H   0  0  0  0  0  0  0  0  0  0  0  0
    0.0554   -0.9568    1.5289 H   0  0  0  0  0  0  0  0  0  0  0  0
   -0.1763   -3.1674    0.5443 H   0  0  0  0  0  0  0  0  0  0  0  0
   -5.4054    0.1802    1.6997 H   0  0  0  0  0  0  0  0  0  0  0  0
   -3.7172   -0.2296    1.8230 H   0  0  0  0  0  0  0  0  0  0  0  0
    0.9483   -2.0229   -2.0640 H   0  0  0  0  0  0  0  0  0  0  0  0
   -0.0568   -3.4642   -1.8684 H   0  0  0  0  0  0  0  0  0  0  0  0
   -1.1776   -0.9888   -2.4087 H   0  0  0  0  0  0  0  0  0  0  0  0
   -1.9959   -2.1657   -1.3402 H   0  0  0  0  0  0  0  0  0  0  0  0
    1.9960   -3.9144    0.4318 H   0  0  0  0  0  0  0  0  0  0  0  0
   -4.1317   -3.2428    0.4972 H   0  0  0  0  0  0  0  0  0  0  0  0
    2.8287    1.9046    0.9776 H   0  0  0  0  0  0  0  0  0  0  0  0
    5.1458   -1.3041   -0.8273 H   0  0  0  0  0  0  0  0  0  0  0  0
    4.7251    3.3823    0.7348 H   0  0  0  0  0  0  0  0  0  0  0  0
    7.0582    0.1676   -0.9392 H   0  0  0  0  0  0  0  0  0  0  0  0
    7.1824    3.5474    0.5653 H   0  0  0  0  0  0  0  0  0  0  0  0
    7.1975    3.2854   -1.1948 H   0  0  0  0  0  0  0  0  0  0  0  0
    8.1376    2.2321   -0.1117 H   0  0  0  0  0  0  0  0  0  0  0  0
  1 20  2  0  0  0  0
  2 21  2  0  0  0  0
  3 22  1  0  0  0  0
  3 50  1  0  0  0  0
  4 22  2  0  0  0  0
  5 23  2  0  0  0  0
  6 15  1  0  0  0  0
  6 19  1  0  0  0  0
  6 20  1  0  0  0  0
  7 16  1  0  0  0  0
  7 23  1  0  0  0  0
  7 49  1  0  0  0  0
  8 21  1  0  0  0  0
  8 23  1  0  0  0  0
  8 24  1  0  0  0  0
  9 10  1  0  0  0  0
  9 11  1  0  0  0  0
  9 12  1  0  0  0  0
  9 17  1  0  0  0  0
 10 13  1  0  0  0  0
 10 31  1  0  0  0  0
 10 32  1  0  0  0  0
 11 14  1  0  0  0  0
 11 33  1  0  0  0  0
 11 34  1  0  0  0  0
 12 20  1  0  0  0  0
 12 35  1  0  0  0  0
 12 36  1  0  0  0  0
 13 14  1  0  0  0  0
 13 37  1  0  0  0  0
 13 38  1  0  0  0  0
 14 39  1  0  0  0  0
 14 40  1  0  0  0  0
 15 16  1  0  0  0  0
 15 21  1  0  0  0  0
 15 41  1  0  0  0  0
 16 18  1  0  0  0  0
 16 42  1  0  0  0  0
 17 22  1  0  0  0  0
 17 43  1  0  0  0  0
 17 44  1  0  0  0  0
 18 19  1  0  0  0  0
 18 45  1  0  0  0  0
 18 46  1  0  0  0  0
 19 47  1  0  0  0  0
 19 48  1  0  0  0  0
 24 25  2  0  0  0  0
 24 26  1  0  0  0  0
 25 27  1  0  0  0  0
 25 51  1  0  0  0  0
 26 28  2  0  0  0  0
 26 52  1  0  0  0  0
 27 29  2  0  0  0  0
 27 53  1  0  0  0  0
 28 29  1  0  0  0  0
 28 54  1  0  0  0  0
 29 30  1  0  0  0  0
 30 55  1  0  0  0  0
 30 56  1  0  0  0  0
 30 57  1  0  0  0  0
M  END
> <PUBCHEM_COMPOUND_CID>
7156591

> <PUBCHEM_CONFORMER_RMSD>
1

> <PUBCHEM_CONFORMER_DIVERSEORDER>
1
49
64
20
36
56
52
60
42
58
65
61
73
3
12
59
55
10
70
16
26
39
18
71
4
8
31
30
43
15
40
7
34
33
45
69
53
50
24
23
51
41
67
46
9
76
54
22
47
44
14
32
57
72
27
19
35
68
66
29
28
37
13
63
48
75
5
77
21
6
74
11
2
62
38
17
25

> <PUBCHEM_MMFF94_PARTIAL_CHARGES>
30
1 -0.57
12 0.06
15 0.36
16 0.3
17 0.06
19 0.3
2 -0.57
20 0.57
21 0.57
22 0.66
23 0.69
24 0.12
25 -0.15
26 -0.15
27 -0.15
28 -0.15
29 -0.14
3 -0.65
30 0.14
4 -0.57
49 0.37
5 -0.57
50 0.5
51 0.15
52 0.15
53 0.15
54 0.15
6 -0.66
7 -0.73
8 -0.24

> <PUBCHEM_EFFECTIVE_ROTOR_COUNT>
8

> <PUBCHEM_PHARMACOPHORE_FEATURES>
11
1 1 acceptor
1 2 acceptor
1 3 acceptor
1 4 acceptor
1 5 acceptor
1 7 donor
3 3 4 22 anion
5 6 15 16 18 19 rings
5 9 10 11 13 14 rings
6 24 25 26 27 28 29 rings
6 7 8 15 16 21 23 rings

> <PUBCHEM_HEAVY_ATOM_COUNT>
30

> <PUBCHEM_ATOM_DEF_STEREO_COUNT>
2

> <PUBCHEM_ATOM_UDEF_STEREO_COUNT>
0

> <PUBCHEM_BOND_DEF_STEREO_COUNT>
0

> <PUBCHEM_BOND_UDEF_STEREO_COUNT>
0

> <PUBCHEM_ISOTOPIC_ATOM_COUNT>
0

> <PUBCHEM_COMPONENT_COUNT>
1

> <PUBCHEM_CACTVS_TAUTO_COUNT>
2

> <PUBCHEM_CONFORMER_ID>
006D336F00000001

> <PUBCHEM_MMFF94_ENERGY>
105.5173

> <PUBCHEM_FEATURE_SELFOVERLAP>
56.068

> <PUBCHEM_SHAPE_FINGERPRINT>
10050765 1 18409448059475597363
10411042 1 17545598951518306362
10595046 47 18411134736450914587
10675989 125 17616249187962930257
10835480 77 18335133155782083365
10906281 52 17773321132877101129
11136131 41 18262228929496129066
11578080 2 17241872208665111527
12403259 118 18341037519910947419
12422481 6 17531243933457617012
12788726 201 17489310733343717104
13540713 5 18264466508583880498
13631057 29 18341048644567223315
13785724 45 17763461713058132106
13878862 14 18118379783930720756
13911987 19 17775282755735579637
14528608 73 18342172232979742525
1454969 45 18201153356380746767
14790565 3 18337394967074546436
14931854 50 18060147540022975448
15064986 266 18409453553930291171
15183329 4 15985109617485397212
15575132 122 18343582962601791903
17349148 13 13984953896161805003
17844677 252 18411424998756678521
17980427 23 17531256071219441423
18608769 82 18196936788731965530
21033648 144 18262228933474552701
21033648 29 18271796964926468256
21279426 13 18342746191567177428
21756936 100 18341608278394214750
23559900 14 18052537673517187091
23569914 2 17538232446402121652
2747138 104 18116448114068454947
2838139 119 18272645796956950852
335352 9 18411700955723871934
34797466 226 18059299768811471743
350125 39 18339926042361391945
4058900 60 18335146349652247250
4073 2 18186806884925466363
4144715 1 18334306339743208947
44062 13 9727638302213163115
5104073 3 18187085009970182667
550186 72 18339643442721097333
636775 72 18053377984538959168
7288768 16 18041276664466876706

> <PUBCHEM_SHAPE_MULTIPOLES>
573.1
16.68
3.72
1.02
7.18
0.16
-0.17
13.09
-0.55
-0.2
0.03
-0.72
-0.19
0.15

> <PUBCHEM_SHAPE_SELFOVERLAP>
1241.006

> <PUBCHEM_SHAPE_VOLUME>
313.3

> <PUBCHEM_COORDINATE_TYPE>
2
5
10

$$$$
