45783549
  -OEChem-12032416203D

 60 63  0     1  0  0  0  0  0999 V2000
   -2.5904   -1.4702    2.0235 O   0  0  0  0  0  0  0  0  0  0  0  0
    4.7524   -1.2342    0.0497 O   0  0  0  0  0  0  0  0  0  0  0  0
    7.1269    0.0674   -0.6588 O   0  0  0  0  0  0  0  0  0  0  0  0
   -4.2248   -0.4504   -1.1060 N   0  0  1  0  0  0  0  0  0  0  0  0
   -1.5793   -1.2244    0.0400 N   0  0  0  0  0  0  0  0  0  0  0  0
   -1.2141   -1.5024    2.2813 N   0  0  0  0  0  0  0  0  0  0  0  0
    0.5912    3.4823    0.3788 N   0  0  0  0  0  0  0  0  0  0  0  0
    2.5677   -1.1358   -0.7255 N   0  0  0  0  0  0  0  0  0  0  0  0
   -4.1310   -1.2361    0.1406 C   0  0  1  0  0  0  0  0  0  0  0  0
   -4.6942   -2.6214   -0.2267 C   0  0  0  0  0  0  0  0  0  0  0  0
   -5.1341   -2.4996   -1.6788 C   0  0  0  0  0  0  0  0  0  0  0  0
   -5.3438   -1.0103   -1.8642 C   0  0  0  0  0  0  0  0  0  0  0  0
   -4.3811    0.9796   -0.8734 C   0  0  0  0  0  0  0  0  0  0  0  0
   -2.7179   -1.3041    0.6809 C   0  0  0  0  0  0  0  0  0  0  0  0
   -3.0694    1.6406   -0.5428 C   0  0  0  0  0  0  0  0  0  0  0  0
   -2.9152    2.3198    0.6657 C   0  0  0  0  0  0  0  0  0  0  0  0
   -2.0078    1.5730   -1.4452 C   0  0  0  0  0  0  0  0  0  0  0  0
   -0.6855   -1.3512    1.0633 C   0  0  0  0  0  0  0  0  0  0  0  0
   -1.6997    2.9316    0.9718 C   0  0  0  0  0  0  0  0  0  0  0  0
   -0.7923    2.1849   -1.1392 C   0  0  0  0  0  0  0  0  0  0  0  0
   -0.6382    2.8641    0.0693 C   0  0  0  0  0  0  0  0  0  0  0  0
    0.7304   -1.3242    0.8344 C   0  0  0  0  0  0  0  0  0  0  0  0
    1.6285   -1.4547    1.8880 C   0  0  0  0  0  0  0  0  0  0  0  0
    1.2461   -1.1685   -0.4420 C   0  0  0  0  0  0  0  0  0  0  0  0
    0.7618    4.1900    1.6320 C   0  0  0  0  0  0  0  0  0  0  0  0
    1.7025    3.4113   -0.5491 C   0  0  0  0  0  0  0  0  0  0  0  0
    2.9957   -1.4258    1.6361 C   0  0  0  0  0  0  0  0  0  0  0  0
    3.4102   -1.2656    0.3237 C   0  0  0  0  0  0  0  0  0  0  0  0
    5.1235   -1.0677   -1.3137 C   0  0  0  0  0  0  0  0  0  0  0  0
    6.6363   -1.0335   -1.4142 C   0  0  0  0  0  0  0  0  0  0  0  0
    8.5455    0.1356   -0.6994 C   0  0  0  0  0  0  0  0  0  0  0  0
   -4.7795   -0.8099    0.9190 H   0  0  0  0  0  0  0  0  0  0  0  0
   -3.9744   -3.4382   -0.1056 H   0  0  0  0  0  0  0  0  0  0  0  0
   -5.5646   -2.8440    0.4025 H   0  0  0  0  0  0  0  0  0  0  0  0
   -6.0377   -3.0799   -1.8874 H   0  0  0  0  0  0  0  0  0  0  0  0
   -4.3369   -2.8593   -2.3411 H   0  0  0  0  0  0  0  0  0  0  0  0
   -6.3118   -0.7072   -1.4452 H   0  0  0  0  0  0  0  0  0  0  0  0
   -5.3085   -0.7279   -2.9209 H   0  0  0  0  0  0  0  0  0  0  0  0
   -5.1409    1.1865   -0.1083 H   0  0  0  0  0  0  0  0  0  0  0  0
   -4.7447    1.4686   -1.7883 H   0  0  0  0  0  0  0  0  0  0  0  0
   -3.7332    2.3780    1.3787 H   0  0  0  0  0  0  0  0  0  0  0  0
   -2.1144    1.0509   -2.3925 H   0  0  0  0  0  0  0  0  0  0  0  0
   -1.6296    3.4465    1.9248 H   0  0  0  0  0  0  0  0  0  0  0  0
    0.0028    2.1033   -1.8737 H   0  0  0  0  0  0  0  0  0  0  0  0
    1.2977   -1.5799    2.9157 H   0  0  0  0  0  0  0  0  0  0  0  0
    0.6089   -1.0601   -1.3147 H   0  0  0  0  0  0  0  0  0  0  0  0
    0.0610    5.0285    1.7121 H   0  0  0  0  0  0  0  0  0  0  0  0
    0.6300    3.5175    2.4870 H   0  0  0  0  0  0  0  0  0  0  0  0
    1.7675    4.6156    1.7230 H   0  0  0  0  0  0  0  0  0  0  0  0
    2.0094    2.3732   -0.7200 H   0  0  0  0  0  0  0  0  0  0  0  0
    1.4506    3.8825   -1.5057 H   0  0  0  0  0  0  0  0  0  0  0  0
    2.5842    3.9370   -0.1659 H   0  0  0  0  0  0  0  0  0  0  0  0
    3.7097   -1.5260    2.4464 H   0  0  0  0  0  0  0  0  0  0  0  0
    4.7196   -0.1184   -1.6872 H   0  0  0  0  0  0  0  0  0  0  0  0
    4.7398   -1.8997   -1.9159 H   0  0  0  0  0  0  0  0  0  0  0  0
    7.0553   -1.9600   -1.0044 H   0  0  0  0  0  0  0  0  0  0  0  0
    6.9397   -0.9299   -2.4618 H   0  0  0  0  0  0  0  0  0  0  0  0
    8.9858   -0.7671   -0.2650 H   0  0  0  0  0  0  0  0  0  0  0  0
    8.8941    0.2680   -1.7282 H   0  0  0  0  0  0  0  0  0  0  0  0
    8.8656    0.9982   -0.1090 H   0  0  0  0  0  0  0  0  0  0  0  0
  1  6  1  0  0  0  0
  1 14  1  0  0  0  0
  2 28  1  0  0  0  0
  2 29  1  0  0  0  0
  3 30  1  0  0  0  0
  3 31  1  0  0  0  0
  4  9  1  0  0  0  0
  4 12  1  0  0  0  0
  4 13  1  0  0  0  0
  5 14  2  0  0  0  0
  5 18  1  0  0  0  0
  6 18  2  0  0  0  0
  7 21  1  0  0  0  0
  7 25  1  0  0  0  0
  7 26  1  0  0  0  0
  8 24  1  0  0  0  0
  8 28  2  0  0  0  0
  9 10  1  0  0  0  0
  9 14  1  0  0  0  0
  9 32  1  0  0  0  0
 10 11  1  0  0  0  0
 10 33  1  0  0  0  0
 10 34  1  0  0  0  0
 11 12  1  0  0  0  0
 11 35  1  0  0  0  0
 11 36  1  0  0  0  0
 12 37  1  0  0  0  0
 12 38  1  0  0  0  0
 13 15  1  0  0  0  0
 13 39  1  0  0  0  0
 13 40  1  0  0  0  0
 15 16  2  0  0  0  0
 15 17  1  0  0  0  0
 16 19  1  0  0  0  0
 16 41  1  0  0  0  0
 17 20  2  0  0  0  0
 17 42  1  0  0  0  0
 18 22  1  0  0  0  0
 19 21  2  0  0  0  0
 19 43  1  0  0  0  0
 20 21  1  0  0  0  0
 20 44  1  0  0  0  0
 22 23  1  0  0  0  0
 22 24  2  0  0  0  0
 23 27  2  0  0  0  0
 23 45  1  0  0  0  0
 24 46  1  0  0  0  0
 25 47  1  0  0  0  0
 25 48  1  0  0  0  0
 25 49  1  0  0  0  0
 26 50  1  0  0  0  0
 26 51  1  0  0  0  0
 26 52  1  0  0  0  0
 27 28  1  0  0  0  0
 27 53  1  0  0  0  0
 29 30  1  0  0  0  0
 29 54  1  0  0  0  0
 29 55  1  0  0  0  0
 30 56  1  0  0  0  0
 30 57  1  0  0  0  0
 31 58  1  0  0  0  0
 31 59  1  0  0  0  0
 31 60  1  0  0  0  0
M  END
> <PUBCHEM_COMPOUND_CID>
45783549

> <PUBCHEM_CONFORMER_RMSD>
1

> <PUBCHEM_CONFORMER_DIVERSEORDER>
1
33
18
49
63
52
36
10
30
67
57
27
45
24
51
41
14
32
25
5
11
3
34
21
2
17
31
40
56
39
48
53
26
60
28
37
47
23
35
43
62
44
61
9
8
29
22
16
15
54
12
58
64
65
66
42
19
59
13
50
38
55
7
4
46
20
6

> <PUBCHEM_MMFF94_PARTIAL_CHARGES>
36
1 -0.02
12 0.27
13 0.41
14 0.3
15 -0.14
16 -0.15
17 -0.15
18 0.46
19 -0.15
2 -0.36
20 -0.15
21 0.1
22 0.05
23 -0.15
24 0.16
25 0.37
26 0.37
27 -0.15
28 0.39
29 0.28
3 -0.56
30 0.28
31 0.28
4 -0.81
41 0.15
42 0.15
43 0.15
44 0.15
45 0.15
46 0.15
5 -0.57
53 0.15
6 -0.41
7 -0.84
8 -0.62
9 0.45

> <PUBCHEM_EFFECTIVE_ROTOR_COUNT>
10

> <PUBCHEM_PHARMACOPHORE_FEATURES>
8
1 3 acceptor
1 4 cation
1 7 cation
3 5 6 18 cation
5 1 5 6 14 18 rings
5 4 9 10 11 12 rings
6 15 16 17 19 20 21 rings
6 8 22 23 24 27 28 rings

> <PUBCHEM_HEAVY_ATOM_COUNT>
31

> <PUBCHEM_ATOM_DEF_STEREO_COUNT>
1

> <PUBCHEM_ATOM_UDEF_STEREO_COUNT>
0

> <PUBCHEM_BOND_DEF_STEREO_COUNT>
0

> <PUBCHEM_BOND_UDEF_STEREO_COUNT>
0

> <PUBCHEM_ISOTOPIC_ATOM_COUNT>
0

> <PUBCHEM_COMPONENT_COUNT>
1

> <PUBCHEM_CACTVS_TAUTO_COUNT>
1

> <PUBCHEM_CONFORMER_ID>
02BA99FD00000001

> <PUBCHEM_MMFF94_ENERGY>
84.0805

> <PUBCHEM_FEATURE_SELFOVERLAP>
40.598

> <PUBCHEM_SHAPE_FINGERPRINT>
10454371 7 18410583851572350556
1100329 8 18338789015149684721
11477941 20 18342168977674113988
12107698 1 18411701006640844438
12788726 201 18192711142139434329
13761468 95 17684374949255763446
14931854 50 18114174207561926110
15876981 60 18410583859323638876
17492 54 18041553625380178717
17818456 19 17758933953696137099
19319366 153 17535182255854942251
20642791 35 18263343868788661533
20691752 17 17314205879264677917
20721686 56 18337392768378481328
20775438 99 17621010485269703015
20905425 154 18192704769109229677
21304303 64 16805886183165982885
21344244 246 17981320415431161911
23559900 14 17968936517088171725
238918 7 17615678970259881553
255183 451 18125715949456612167
3298306 158 17831286569459210217
484985 159 12894777087835789501
5171179 24 18270956950764225169

> <PUBCHEM_SHAPE_MULTIPOLES>
595.45
14.35
4.34
1.86
28.86
5.29
0.44
-8.71
-9.09
-2.26
0.96
-0.38
-0.54
-0.38

> <PUBCHEM_SHAPE_SELFOVERLAP>
1267.998

> <PUBCHEM_SHAPE_VOLUME>
334.4

> <PUBCHEM_COORDINATE_TYPE>
2
5
10

$$$$
