45783377
  -OEChem-12032416263D

 53 56  0     1  0  0  0  0  0999 V2000
    0.3373   -2.1659    2.5235 F   0  0  0  0  0  0  0  0  0  0  0  0
    0.7410   -4.2526    0.8032 F   0  0  0  0  0  0  0  0  0  0  0  0
   -0.6478   -0.2389   -2.7090 O   0  0  0  0  0  0  0  0  0  0  0  0
   -0.1419    2.3381    2.6956 O   0  0  0  0  0  0  0  0  0  0  0  0
   -2.9687    0.7562   -0.2651 N   0  0  1  0  0  0  0  0  0  0  0  0
    0.0704    1.0355   -1.0128 N   0  0  0  0  0  0  0  0  0  0  0  0
    0.7348   -0.4459   -2.6246 N   0  0  0  0  0  0  0  0  0  0  0  0
    1.7144    0.8959    1.1118 N   0  0  0  0  0  0  0  0  0  0  0  0
    4.0314    0.8339    0.6355 N   0  0  0  0  0  0  0  0  0  0  0  0
   -2.4140    1.0391   -1.6039 C   0  0  1  0  0  0  0  0  0  0  0  0
   -2.6421    2.5478   -1.8110 C   0  0  0  0  0  0  0  0  0  0  0  0
   -3.3838    3.0125   -0.5657 C   0  0  0  0  0  0  0  0  0  0  0  0
   -4.0231    1.7444   -0.0372 C   0  0  0  0  0  0  0  0  0  0  0  0
   -3.4569   -0.6095   -0.1224 C   0  0  0  0  0  0  0  0  0  0  0  0
   -0.9566    0.6461   -1.7252 C   0  0  0  0  0  0  0  0  0  0  0  0
   -2.3352   -1.5830    0.1246 C   0  0  0  0  0  0  0  0  0  0  0  0
    1.0855    0.3391   -1.6015 C   0  0  0  0  0  0  0  0  0  0  0  0
   -1.5019   -1.4202    1.2313 C   0  0  0  0  0  0  0  0  0  0  0  0
   -2.1296   -2.6476   -0.7527 C   0  0  0  0  0  0  0  0  0  0  0  0
    2.4403    0.4513   -1.1441 C   0  0  0  0  0  0  0  0  0  0  0  0
   -0.4629   -2.3222    1.4607 C   0  0  0  0  0  0  0  0  0  0  0  0
   -1.0904   -3.5495   -0.5234 C   0  0  0  0  0  0  0  0  0  0  0  0
   -0.2571   -3.3869    0.5833 C   0  0  0  0  0  0  0  0  0  0  0  0
    2.7651    0.7224    0.1754 C   0  0  0  0  0  0  0  0  0  0  0  0
    3.4821    0.2838   -2.0496 C   0  0  0  0  0  0  0  0  0  0  0  0
    1.9509    1.1774    2.4896 C   0  0  0  0  0  0  0  0  0  0  0  0
    4.7983    0.3910   -1.6141 C   0  0  0  0  0  0  0  0  0  0  0  0
    5.0176    0.6648   -0.2736 C   0  0  0  0  0  0  0  0  0  0  0  0
    0.6302    1.2726    3.2346 C   0  0  0  0  0  0  0  0  0  0  0  0
   -1.3873    2.4703    3.3669 C   0  0  0  0  0  0  0  0  0  0  0  0
   -2.9861    0.5131   -2.3813 H   0  0  0  0  0  0  0  0  0  0  0  0
   -1.7205    3.1226   -1.9523 H   0  0  0  0  0  0  0  0  0  0  0  0
   -3.2742    2.7067   -2.6934 H   0  0  0  0  0  0  0  0  0  0  0  0
   -4.1183    3.7921   -0.7880 H   0  0  0  0  0  0  0  0  0  0  0  0
   -2.6701    3.4140    0.1645 H   0  0  0  0  0  0  0  0  0  0  0  0
   -4.9313    1.5099   -0.6069 H   0  0  0  0  0  0  0  0  0  0  0  0
   -4.2801    1.8357    1.0226 H   0  0  0  0  0  0  0  0  0  0  0  0
   -4.0725   -0.9128   -0.9794 H   0  0  0  0  0  0  0  0  0  0  0  0
   -4.1174   -0.6796    0.7534 H   0  0  0  0  0  0  0  0  0  0  0  0
   -1.6617   -0.6025    1.9268 H   0  0  0  0  0  0  0  0  0  0  0  0
   -2.7695   -2.7855   -1.6201 H   0  0  0  0  0  0  0  0  0  0  0  0
   -0.9291   -4.3777   -1.2070 H   0  0  0  0  0  0  0  0  0  0  0  0
    3.3010    0.0767   -3.1014 H   0  0  0  0  0  0  0  0  0  0  0  0
    0.8255    0.4709    0.8705 H   0  0  0  0  0  0  0  0  0  0  0  0
    2.5633    0.3911    2.9453 H   0  0  0  0  0  0  0  0  0  0  0  0
    2.4854    2.1302    2.5829 H   0  0  0  0  0  0  0  0  0  0  0  0
    5.6265    0.2661   -2.3022 H   0  0  0  0  0  0  0  0  0  0  0  0
    6.0257    0.7588    0.1163 H   0  0  0  0  0  0  0  0  0  0  0  0
    0.0743    0.3339    3.1593 H   0  0  0  0  0  0  0  0  0  0  0  0
    0.8289    1.4707    4.2945 H   0  0  0  0  0  0  0  0  0  0  0  0
   -1.9828    1.5592    3.2561 H   0  0  0  0  0  0  0  0  0  0  0  0
   -1.2307    2.6925    4.4268 H   0  0  0  0  0  0  0  0  0  0  0  0
   -1.9356    3.3005    2.9135 H   0  0  0  0  0  0  0  0  0  0  0  0
  1 21  1  0  0  0  0
  2 23  1  0  0  0  0
  3  7  1  0  0  0  0
  3 15  1  0  0  0  0
  4 29  1  0  0  0  0
  4 30  1  0  0  0  0
  5 10  1  0  0  0  0
  5 13  1  0  0  0  0
  5 14  1  0  0  0  0
  6 15  2  0  0  0  0
  6 17  1  0  0  0  0
  7 17  2  0  0  0  0
  8 24  1  0  0  0  0
  8 26  1  0  0  0  0
  8 44  1  0  0  0  0
  9 24  1  0  0  0  0
  9 28  2  0  0  0  0
 10 11  1  0  0  0  0
 10 15  1  0  0  0  0
 10 31  1  0  0  0  0
 11 12  1  0  0  0  0
 11 32  1  0  0  0  0
 11 33  1  0  0  0  0
 12 13  1  0  0  0  0
 12 34  1  0  0  0  0
 12 35  1  0  0  0  0
 13 36  1  0  0  0  0
 13 37  1  0  0  0  0
 14 16  1  0  0  0  0
 14 38  1  0  0  0  0
 14 39  1  0  0  0  0
 16 18  2  0  0  0  0
 16 19  1  0  0  0  0
 17 20  1  0  0  0  0
 18 21  1  0  0  0  0
 18 40  1  0  0  0  0
 19 22  2  0  0  0  0
 19 41  1  0  0  0  0
 20 24  2  0  0  0  0
 20 25  1  0  0  0  0
 21 23  2  0  0  0  0
 22 23  1  0  0  0  0
 22 42  1  0  0  0  0
 25 27  2  0  0  0  0
 25 43  1  0  0  0  0
 26 29  1  0  0  0  0
 26 45  1  0  0  0  0
 26 46  1  0  0  0  0
 27 28  1  0  0  0  0
 27 47  1  0  0  0  0
 28 48  1  0  0  0  0
 29 49  1  0  0  0  0
 29 50  1  0  0  0  0
 30 51  1  0  0  0  0
 30 52  1  0  0  0  0
 30 53  1  0  0  0  0
M  END
> <PUBCHEM_COMPOUND_CID>
45783377

> <PUBCHEM_CONFORMER_RMSD>
1

> <PUBCHEM_CONFORMER_DIVERSEORDER>
1
24
4
125
61
131
37
226
88
69
129
178
184
73
176
222
215
162
208
3
106
173
182
68
218
145
121
40
171
220
160
195
65
99
179
54
209
2
110
223
213
191
57
117
225
41
118
163
127
183
193
186
188
5
46
175
172
148
152
168
146
189
39
201
59
10
116
130
115
34
58
147
95
212
224
113
214
166
122
194
219
205
29
43
134
7
8
200
14
86
211
167
45
96
216
28
204
85
53
103
128
159
206
12
150
132
161
143
90
153
42
80
202
98
140
199
84
180
74
71
27
76
82
13
107
47
190
23
44
93
49
185
36
120
135
30
15
141
164
154
181
55
124
217
32
155
210
144
170
94
138
97
60
20
51
221
177
22
123
111
142
92
198
101
78
79
137
33
112
109
100
66
6
64
72
151
87
197
133
196
52
158
157
108
102
139
83
50
203
26
104
119
81
18
56
48
62
25
227
165
21
9
192
169
174
63
89
114
16
136
19
67
207
17
91
187
35
77
156
75
11
38
105
70
31
126
149

> <PUBCHEM_MMFF94_PARTIAL_CHARGES>
35
1 -0.19
10 0.45
13 0.27
14 0.41
15 0.3
16 -0.14
17 0.46
18 -0.15
19 -0.15
2 -0.19
20 0.05
21 0.19
22 -0.15
23 0.19
24 0.41
25 -0.15
26 0.37
27 -0.15
28 0.16
29 0.28
3 -0.02
30 0.28
4 -0.56
40 0.15
41 0.15
42 0.15
43 0.15
44 0.4
47 0.15
48 0.15
5 -0.81
6 -0.57
7 -0.41
8 -0.87
9 -0.62

> <PUBCHEM_EFFECTIVE_ROTOR_COUNT>
9

> <PUBCHEM_PHARMACOPHORE_FEATURES>
10
1 4 acceptor
1 5 cation
1 8 cation
1 8 donor
1 9 acceptor
3 6 7 17 cation
5 3 6 7 15 17 rings
5 5 10 11 12 13 rings
6 16 18 19 21 22 23 rings
6 9 20 24 25 27 28 rings

> <PUBCHEM_HEAVY_ATOM_COUNT>
30

> <PUBCHEM_ATOM_DEF_STEREO_COUNT>
1

> <PUBCHEM_ATOM_UDEF_STEREO_COUNT>
0

> <PUBCHEM_BOND_DEF_STEREO_COUNT>
0

> <PUBCHEM_BOND_UDEF_STEREO_COUNT>
0

> <PUBCHEM_ISOTOPIC_ATOM_COUNT>
0

> <PUBCHEM_COMPONENT_COUNT>
1

> <PUBCHEM_CACTVS_TAUTO_COUNT>
8

> <PUBCHEM_CONFORMER_ID>
02BA995100000001

> <PUBCHEM_MMFF94_ENERGY>
67.1846

> <PUBCHEM_FEATURE_SELFOVERLAP>
50.747

> <PUBCHEM_SHAPE_FINGERPRINT>
10165383 225 18411144602191552545
11578080 2 18192160515091146752
12166972 35 14620503549766006005
12293681 4 17775010102083436568
12422481 6 17389914813647194514
12539773 59 17168682203196887913
12788726 201 17970924472681513631
133893 2 17612045775840687985
15274700 242 15793387702668467162
16752209 62 17606094389903543439
20554085 129 18194942103267905533
23419403 2 17555724762151147535
23728640 28 17968953009689033919
35225 105 18338218453817291361
469060 322 17972351549229172953
5265222 85 18189077377233721182
5845 1 11983470836464719739
6438718 38 17313401062079844480

> <PUBCHEM_SHAPE_MULTIPOLES>
566.19
6.79
3.98
3.31
6.36
3.48
-1.96
-3.65
3
-3.47
-1.85
0.52
-1.88
0.69

> <PUBCHEM_SHAPE_SELFOVERLAP>
1218.546

> <PUBCHEM_SHAPE_VOLUME>
315

> <PUBCHEM_COORDINATE_TYPE>
2
5
10

$$$$
