56775539
  -OEChem-12032416273D

 47 49  0     0  0  0  0  0  0999 V2000
    0.2972    3.5093   -0.6556 O   0  0  0  0  0  0  0  0  0  0  0  0
   -2.8647   -1.5416    0.6125 O   0  0  0  0  0  0  0  0  0  0  0  0
   -5.1504   -1.1852   -1.3089 O   0  0  0  0  0  0  0  0  0  0  0  0
    0.9204    0.4721   -0.3800 N   0  0  0  0  0  0  0  0  0  0  0  0
   -1.6184   -1.0529    0.9852 N   0  0  0  0  0  0  0  0  0  0  0  0
    0.1698    1.5735    0.2347 C   0  0  0  0  0  0  0  0  0  0  0  0
    2.9869   -0.8180   -0.0669 C   0  0  0  0  0  0  0  0  0  0  0  0
    1.8067   -0.1223    0.6086 C   0  0  0  0  0  0  0  0  0  0  0  0
    3.8161    0.1865   -0.8785 C   0  0  0  0  0  0  0  0  0  0  0  0
    3.8603   -1.5346    0.9717 C   0  0  0  0  0  0  0  0  0  0  0  0
   -0.5457    2.3530   -0.8626 C   0  0  0  0  0  0  0  0  0  0  0  0
    1.0784    2.7942    0.3288 C   0  0  0  0  0  0  0  0  0  0  0  0
   -0.6021    1.1490    1.4464 C   0  0  0  0  0  0  0  0  0  0  0  0
    5.0331   -0.4756   -1.5205 C   0  0  0  0  0  0  0  0  0  0  0  0
    5.0773   -2.1936    0.3266 C   0  0  0  0  0  0  0  0  0  0  0  0
    5.8941   -1.1940   -0.4863 C   0  0  0  0  0  0  0  0  0  0  0  0
   -1.7742    0.2720    1.0579 C   0  0  0  0  0  0  0  0  0  0  0  0
   -3.0844    0.6733    0.7448 C   0  0  0  0  0  0  0  0  0  0  0  0
   -3.7292   -0.5042    0.4724 C   0  0  0  0  0  0  0  0  0  0  0  0
   -5.1020   -0.8438    0.0792 C   0  0  0  0  0  0  0  0  0  0  0  0
   -6.4695   -1.5169   -1.7096 C   0  0  0  0  0  0  0  0  0  0  0  0
    2.5961   -1.5788   -0.7579 H   0  0  0  0  0  0  0  0  0  0  0  0
    1.2606   -0.8653    1.2021 H   0  0  0  0  0  0  0  0  0  0  0  0
    2.2084    0.6189    1.3119 H   0  0  0  0  0  0  0  0  0  0  0  0
    4.1546    1.0037   -0.2286 H   0  0  0  0  0  0  0  0  0  0  0  0
    3.2125    0.6405   -1.6727 H   0  0  0  0  0  0  0  0  0  0  0  0
    3.2715   -2.2983    1.4938 H   0  0  0  0  0  0  0  0  0  0  0  0
    4.1995   -0.8199    1.7325 H   0  0  0  0  0  0  0  0  0  0  0  0
    0.3479   -0.2522   -0.8116 H   0  0  0  0  0  0  0  0  0  0  0  0
   -1.5905    2.6186   -0.6798 H   0  0  0  0  0  0  0  0  0  0  0  0
   -0.4560    1.9798   -1.8888 H   0  0  0  0  0  0  0  0  0  0  0  0
    2.1176    2.6961   -0.0022 H   0  0  0  0  0  0  0  0  0  0  0  0
    1.0661    3.3184    1.2902 H   0  0  0  0  0  0  0  0  0  0  0  0
   -1.0193    2.0357    1.9449 H   0  0  0  0  0  0  0  0  0  0  0  0
    0.0011    0.6605    2.2194 H   0  0  0  0  0  0  0  0  0  0  0  0
    5.6339    0.2809   -2.0379 H   0  0  0  0  0  0  0  0  0  0  0  0
    4.6996   -1.1932   -2.2802 H   0  0  0  0  0  0  0  0  0  0  0  0
    4.7464   -3.0111   -0.3258 H   0  0  0  0  0  0  0  0  0  0  0  0
    5.7087   -2.6406    1.1028 H   0  0  0  0  0  0  0  0  0  0  0  0
    6.7184   -1.7128   -0.9886 H   0  0  0  0  0  0  0  0  0  0  0  0
    6.3447   -0.4563    0.1891 H   0  0  0  0  0  0  0  0  0  0  0  0
   -3.5023    1.6688    0.7230 H   0  0  0  0  0  0  0  0  0  0  0  0
   -5.4597   -1.6920    0.6749 H   0  0  0  0  0  0  0  0  0  0  0  0
   -5.7661    0.0089    0.2640 H   0  0  0  0  0  0  0  0  0  0  0  0
   -6.4536   -1.7697   -2.7732 H   0  0  0  0  0  0  0  0  0  0  0  0
   -7.1418   -0.6656   -1.5649 H   0  0  0  0  0  0  0  0  0  0  0  0
   -6.8350   -2.3846   -1.1517 H   0  0  0  0  0  0  0  0  0  0  0  0
  1 11  1  0  0  0  0
  1 12  1  0  0  0  0
  2  5  1  0  0  0  0
  2 19  1  0  0  0  0
  3 20  1  0  0  0  0
  3 21  1  0  0  0  0
  4  6  1  0  0  0  0
  4  8  1  0  0  0  0
  4 29  1  0  0  0  0
  5 17  2  0  0  0  0
  6 11  1  0  0  0  0
  6 12  1  0  0  0  0
  6 13  1  0  0  0  0
  7  8  1  0  0  0  0
  7  9  1  0  0  0  0
  7 10  1  0  0  0  0
  7 22  1  0  0  0  0
  8 23  1  0  0  0  0
  8 24  1  0  0  0  0
  9 14  1  0  0  0  0
  9 25  1  0  0  0  0
  9 26  1  0  0  0  0
 10 15  1  0  0  0  0
 10 27  1  0  0  0  0
 10 28  1  0  0  0  0
 11 30  1  0  0  0  0
 11 31  1  0  0  0  0
 12 32  1  0  0  0  0
 12 33  1  0  0  0  0
 13 17  1  0  0  0  0
 13 34  1  0  0  0  0
 13 35  1  0  0  0  0
 14 16  1  0  0  0  0
 14 36  1  0  0  0  0
 14 37  1  0  0  0  0
 15 16  1  0  0  0  0
 15 38  1  0  0  0  0
 15 39  1  0  0  0  0
 16 40  1  0  0  0  0
 16 41  1  0  0  0  0
 17 18  1  0  0  0  0
 18 19  2  0  0  0  0
 18 42  1  0  0  0  0
 19 20  1  0  0  0  0
 20 43  1  0  0  0  0
 20 44  1  0  0  0  0
 21 45  1  0  0  0  0
 21 46  1  0  0  0  0
 21 47  1  0  0  0  0
M  END
> <PUBCHEM_COMPOUND_CID>
56775539

> <PUBCHEM_CONFORMER_RMSD>
0.8

> <PUBCHEM_CONFORMER_DIVERSEORDER>
1
81
119
157
55
90
43
130
40
148
165
14
176
128
97
82
126
87
99
42
31
131
150
142
144
48
109
41
146
154
50
35
77
168
51
62
147
123
93
112
139
25
92
141
171
160
179
18
16
69
143
10
151
173
129
175
29
125
88
57
102
49
79
110
115
46
137
124
156
86
13
24
38
61
153
5
15
19
161
76
114
152
94
7
178
136
65
64
155
53
73
101
83
39
80
108
103
3
84
58
163
121
149
45
32
162
44
75
59
22
100
21
120
27
111
177
2
33
170
74
140
91
96
8
85
34
169
135
68
63
104
60
47
167
70
52
113
132
122
105
28
4
9
172
56
66
117
127
72
159
133
174
164
78
89
17
145
23
116
134
98
67
37
26
107
158
71
54
95
12
106
138
166
6
11
20
118
36
30

> <PUBCHEM_MMFF94_PARTIAL_CHARGES>
17
1 -0.52
11 0.26
12 0.26
13 0.18
17 0.11
18 -0.15
19 -0.04
2 -0.02
20 0.46
21 0.28
29 0.36
3 -0.56
4 -0.84
42 0.15
5 -0.41
6 0.21
8 0.27

> <PUBCHEM_EFFECTIVE_ROTOR_COUNT>
9

> <PUBCHEM_PHARMACOPHORE_FEATURES>
8
1 1 acceptor
1 3 acceptor
1 4 cation
1 4 donor
1 5 acceptor
4 1 6 11 12 rings
5 2 5 17 18 19 rings
6 7 9 10 14 15 16 rings

> <PUBCHEM_HEAVY_ATOM_COUNT>
21

> <PUBCHEM_ATOM_DEF_STEREO_COUNT>
0

> <PUBCHEM_ATOM_UDEF_STEREO_COUNT>
0

> <PUBCHEM_BOND_DEF_STEREO_COUNT>
0

> <PUBCHEM_BOND_UDEF_STEREO_COUNT>
0

> <PUBCHEM_ISOTOPIC_ATOM_COUNT>
0

> <PUBCHEM_COMPONENT_COUNT>
1

> <PUBCHEM_CACTVS_TAUTO_COUNT>
1

> <PUBCHEM_CONFORMER_ID>
0362537300000001

> <PUBCHEM_MMFF94_ENERGY>
32.7281

> <PUBCHEM_FEATURE_SELFOVERLAP>
40.597

> <PUBCHEM_SHAPE_FINGERPRINT>
10447042 23 18260830384791029102
10753850 27 18413385441064153411
11045515 52 17749680614392549460
11265709 11 18410864239131317321
11823591 26 8430316809927445459
12553582 1 18261683613971205466
12555020 224 18408882967066627379
12596602 18 15626225701964193954
12788726 201 18041841693094415408
12892183 10 14692300490933935242
12895836 83 14634870872822758691
13533116 47 18058728147250780857
14068700 675 18131912663471445433
14178342 30 15481854345380434579
14251764 30 17346047667058780398
14251764 75 10230883713416722962
14347329 18 16226867983980364885
14508225 48 18186522085792294324
15183329 4 17095798841624602391
15188451 53 16988838393761862295
17492 89 18122626325829459203
17539 30 18191864531029198821
1813 80 18272656744390680292
18222031 100 18272652354896972142
19784866 240 17774723156057037807
200 152 17967825907718407808
20028762 73 17561361807199712551
204376 136 10375868558874740777
20645477 70 18264489675446642379
20671657 53 18409456902928882241
20871999 31 18040998410430683953
21424621 283 12035451648879942558
21637258 2 17989483022157009639
221357 26 18186792596218105997
22224240 67 10087636010086580351
23402539 116 18338802212628838083
23419403 2 17986928847913911929
23557571 272 18197508329247479196
23559900 14 18265051512687217953
23622692 118 18202282520172512145
2838139 119 13118000028163135726
2871803 45 18186806855409392634
3004659 81 17822011982720515722
312425 54 15913060785107237839
314194 84 18411427219123194354
351380 3 18272373074654285667
46194498 28 16589730069371894271
5207 123 18412541016218073197
5283173 99 17822568296527601796
56616090 89 18131630075649825400
59682541 52 18261662783896745727
7164475 11 18115873984578450834
76465 3 18060415841896346883
960060 61 18186804703171704926

> <PUBCHEM_SHAPE_MULTIPOLES>
404.6
13.37
2.78
1.37
3.61
2.37
0.26
-12.95
5.62
-0.24
0.43
0.65
-0.2
-1.33

> <PUBCHEM_SHAPE_SELFOVERLAP>
831.552

> <PUBCHEM_SHAPE_VOLUME>
234.9

> <PUBCHEM_COORDINATE_TYPE>
2
5
10

$$$$
