26743856
  -OEChem-12032416263D

 45 48  0     1  0  0  0  0  0999 V2000
    4.3101   -3.6629    0.3872 O   0  0  0  0  0  0  0  0  0  0  0  0
    0.5249    0.1260   -2.1105 O   0  0  0  0  0  0  0  0  0  0  0  0
    2.8217   -0.4157    0.4937 N   0  0  1  0  0  0  0  0  0  0  0  0
   -0.1893   -0.9123   -0.2589 N   0  0  0  0  0  0  0  0  0  0  0  0
   -0.8655    0.2927   -2.0822 N   0  0  0  0  0  0  0  0  0  0  0  0
    0.8577    3.7431   -0.4823 N   0  0  0  0  0  0  0  0  0  0  0  0
    2.3066   -0.9119   -0.7985 C   0  0  1  0  0  0  0  0  0  0  0  0
    2.5912   -2.4253   -0.7809 C   0  0  0  0  0  0  0  0  0  0  0  0
    3.3081   -2.6765    0.5398 C   0  0  2  0  0  0  0  0  0  0  0  0
    3.8986   -1.3228    0.8860 C   0  0  0  0  0  0  0  0  0  0  0  0
    3.2651    0.9713    0.4409 C   0  0  0  0  0  0  0  0  0  0  0  0
    0.8402   -0.5942   -1.0023 C   0  0  0  0  0  0  0  0  0  0  0  0
    2.1090    1.9328    0.5188 C   0  0  0  0  0  0  0  0  0  0  0  0
   -1.2132   -0.3467   -0.9615 C   0  0  0  0  0  0  0  0  0  0  0  0
    1.2438    1.9269    1.6074 C   0  0  0  0  0  0  0  0  0  0  0  0
    1.8747    2.8523   -0.4909 C   0  0  0  0  0  0  0  0  0  0  0  0
   -2.5738   -0.4401   -0.5168 C   0  0  0  0  0  0  0  0  0  0  0  0
    0.1858    2.8281    1.6522 C   0  0  0  0  0  0  0  0  0  0  0  0
   -2.8777   -1.1209    0.6621 C   0  0  0  0  0  0  0  0  0  0  0  0
    0.0376    3.7076    0.5919 C   0  0  0  0  0  0  0  0  0  0  0  0
   -3.5930    0.1516   -1.2633 C   0  0  0  0  0  0  0  0  0  0  0  0
   -4.2007   -1.2099    1.0949 C   0  0  0  0  0  0  0  0  0  0  0  0
   -4.9161    0.0624   -0.8305 C   0  0  0  0  0  0  0  0  0  0  0  0
   -5.2200   -0.6181    0.3486 C   0  0  0  0  0  0  0  0  0  0  0  0
   -4.5263   -1.9376    2.3553 C   0  0  0  0  0  0  0  0  0  0  0  0
    2.8789   -0.4843   -1.6340 H   0  0  0  0  0  0  0  0  0  0  0  0
    1.6870   -3.0415   -0.8455 H   0  0  0  0  0  0  0  0  0  0  0  0
    3.2301   -2.7005   -1.6295 H   0  0  0  0  0  0  0  0  0  0  0  0
    2.5985   -3.0003    1.3111 H   0  0  0  0  0  0  0  0  0  0  0  0
    4.1323   -1.2526    1.9535 H   0  0  0  0  0  0  0  0  0  0  0  0
    4.8249   -1.1450    0.3235 H   0  0  0  0  0  0  0  0  0  0  0  0
    3.8894    1.1664   -0.4409 H   0  0  0  0  0  0  0  0  0  0  0  0
    3.9021    1.1929    1.3088 H   0  0  0  0  0  0  0  0  0  0  0  0
    3.8729   -4.4802    0.0931 H   0  0  0  0  0  0  0  0  0  0  0  0
    1.3843    1.2294    2.4285 H   0  0  0  0  0  0  0  0  0  0  0  0
    2.5132    2.9055   -1.3672 H   0  0  0  0  0  0  0  0  0  0  0  0
   -0.5011    2.8415    2.4905 H   0  0  0  0  0  0  0  0  0  0  0  0
   -2.0969   -1.5898    1.2570 H   0  0  0  0  0  0  0  0  0  0  0  0
   -0.7721    4.4298    0.5786 H   0  0  0  0  0  0  0  0  0  0  0  0
   -3.3947    0.6903   -2.1864 H   0  0  0  0  0  0  0  0  0  0  0  0
   -5.7100    0.5226   -1.4116 H   0  0  0  0  0  0  0  0  0  0  0  0
   -6.2551   -0.6817    0.6736 H   0  0  0  0  0  0  0  0  0  0  0  0
   -4.6306   -3.0084    2.1545 H   0  0  0  0  0  0  0  0  0  0  0  0
   -3.7408   -1.7936    3.1049 H   0  0  0  0  0  0  0  0  0  0  0  0
   -5.4603   -1.5732    2.7964 H   0  0  0  0  0  0  0  0  0  0  0  0
  1  9  1  0  0  0  0
  1 34  1  0  0  0  0
  2  5  1  0  0  0  0
  2 12  1  0  0  0  0
  3  7  1  0  0  0  0
  3 10  1  0  0  0  0
  3 11  1  0  0  0  0
  4 12  2  0  0  0  0
  4 14  1  0  0  0  0
  5 14  2  0  0  0  0
  6 16  1  0  0  0  0
  6 20  2  0  0  0  0
  7  8  1  0  0  0  0
  7 12  1  0  0  0  0
  7 26  1  0  0  0  0
  8  9  1  0  0  0  0
  8 27  1  0  0  0  0
  8 28  1  0  0  0  0
  9 10  1  0  0  0  0
  9 29  1  0  0  0  0
 10 30  1  0  0  0  0
 10 31  1  0  0  0  0
 11 13  1  0  0  0  0
 11 32  1  0  0  0  0
 11 33  1  0  0  0  0
 13 15  1  0  0  0  0
 13 16  2  0  0  0  0
 14 17  1  0  0  0  0
 15 18  2  0  0  0  0
 15 35  1  0  0  0  0
 16 36  1  0  0  0  0
 17 19  1  0  0  0  0
 17 21  2  0  0  0  0
 18 20  1  0  0  0  0
 18 37  1  0  0  0  0
 19 22  2  0  0  0  0
 19 38  1  0  0  0  0
 20 39  1  0  0  0  0
 21 23  1  0  0  0  0
 21 40  1  0  0  0  0
 22 24  1  0  0  0  0
 22 25  1  0  0  0  0
 23 24  2  0  0  0  0
 23 41  1  0  0  0  0
 24 42  1  0  0  0  0
 25 43  1  0  0  0  0
 25 44  1  0  0  0  0
 25 45  1  0  0  0  0
M  END
> <PUBCHEM_COMPOUND_CID>
26743856

> <PUBCHEM_CONFORMER_RMSD>
0.8

> <PUBCHEM_CONFORMER_DIVERSEORDER>
1
127
59
131
97
81
30
95
111
136
113
125
23
18
134
114
109
32
137
143
80
107
157
74
112
71
54
58
88
145
65
70
57
140
155
7
11
103
123
93
67
147
44
130
152
117
47
135
28
63
15
139
6
141
124
128
34
133
119
84
19
90
64
99
49
50
122
29
24
142
87
52
94
118
150
108
126
98
96
22
56
132
153
5
4
53
68
48
51
76
138
146
85
156
102
13
38
20
106
60
105
151
41
35
83
16
91
3
43
66
110
148
46
26
104
55
82
2
154
129
10
149
75
40
89
79
36
144
121
77
27
9
25
92
37
45
86
17
39
21
72
8
100
73
120
31
14
42
33
62
101
12
116
69
115
61
78

> <PUBCHEM_MMFF94_PARTIAL_CHARGES>
33
1 -0.68
10 0.27
11 0.41
12 0.3
13 -0.14
14 0.46
15 -0.15
16 0.16
17 0.05
18 -0.15
19 -0.15
2 -0.02
20 0.16
21 -0.15
22 -0.14
23 -0.15
24 -0.15
25 0.14
3 -0.81
34 0.4
35 0.15
36 0.15
37 0.15
38 0.15
39 0.15
4 -0.57
40 0.15
41 0.15
42 0.15
5 -0.41
6 -0.62
7 0.45
9 0.28

> <PUBCHEM_EFFECTIVE_ROTOR_COUNT>
5

> <PUBCHEM_PHARMACOPHORE_FEATURES>
9
1 1 acceptor
1 1 donor
1 3 cation
1 6 acceptor
3 4 5 14 cation
5 2 4 5 12 14 rings
5 3 7 8 9 10 rings
6 17 19 21 22 23 24 rings
6 6 13 15 16 18 20 rings

> <PUBCHEM_HEAVY_ATOM_COUNT>
25

> <PUBCHEM_ATOM_DEF_STEREO_COUNT>
2

> <PUBCHEM_ATOM_UDEF_STEREO_COUNT>
0

> <PUBCHEM_BOND_DEF_STEREO_COUNT>
0

> <PUBCHEM_BOND_UDEF_STEREO_COUNT>
0

> <PUBCHEM_ISOTOPIC_ATOM_COUNT>
0

> <PUBCHEM_COMPONENT_COUNT>
1

> <PUBCHEM_CACTVS_TAUTO_COUNT>
1

> <PUBCHEM_CONFORMER_ID>
0198143000000001

> <PUBCHEM_MMFF94_ENERGY>
55.0596

> <PUBCHEM_FEATURE_SELFOVERLAP>
45.672

> <PUBCHEM_SHAPE_FINGERPRINT>
10119406 146 15396276795385594614
10165383 225 17758412046376199804
10382601 240 17988071318342158704
104564 63 18131352960513786724
10688039 33 18337102354920765036
11640471 11 16915092069637464285
12422481 6 17416414164546412489
12633257 1 18191008204675501122
13052359 8 17473821724048551796
13134695 92 18272921735177588805
13140716 1 17838326733394670696
13533116 47 18337952424160863675
13583140 156 18266740362917000079
13965767 371 17203321217670927762
14790565 3 17979627159214865008
14866123 147 16968291514446034314
151778 21 17976826702861042377
15420108 30 17201048613299437196
17349148 13 17060053783409792463
21041028 32 18271516482128971764
23559900 14 17676206892496134311
3380486 145 17769895127158072836
4015057 19 18339062879438559135
4409770 3 15469217378568754791
474 4 18057882652873551509
484985 159 17395006544373893946
513202 73 17627241061197718422
5895379 119 14620251800342113745
621550 5 18041280971875677198
6442390 28 17400090058784652856
6786 2 17399255516869882452
7097593 13 18271237339108636255
81228 2 17839475383574234757
8988823 20 18267590285600547043

> <PUBCHEM_SHAPE_MULTIPOLES>
482.83
9.06
4.11
1.76
9.95
2.34
-0.1
-6.84
-2.56
-5.24
-1.24
1.21
-0.03
0.96

> <PUBCHEM_SHAPE_SELFOVERLAP>
1051.526

> <PUBCHEM_SHAPE_VOLUME>
264.5

> <PUBCHEM_COORDINATE_TYPE>
2
5
10

$$$$
