56775487
  -OEChem-12032416323D

 46 48  0     0  0  0  0  0  0999 V2000
    6.6779    1.8396    0.5681 F   0  0  0  0  0  0  0  0  0  0  0  0
   -3.5848   -3.1039    1.1281 O   0  0  0  0  0  0  0  0  0  0  0  0
    1.8238   -2.0148   -0.3944 O   0  0  0  0  0  0  0  0  0  0  0  0
   -2.5344   -0.2774    0.8009 N   0  0  0  0  0  0  0  0  0  0  0  0
    0.5470   -2.4955   -0.6580 N   0  0  0  0  0  0  0  0  0  0  0  0
   -2.4885   -1.5749    0.1197 C   0  0  0  0  0  0  0  0  0  0  0  0
   -2.2085   -2.6617    1.1513 C   0  0  0  0  0  0  0  0  0  0  0  0
   -3.8965   -2.1583    0.0797 C   0  0  0  0  0  0  0  0  0  0  0  0
   -1.6802   -1.5440   -1.1412 C   0  0  0  0  0  0  0  0  0  0  0  0
   -3.0444    0.7333   -0.1200 C   0  0  0  0  0  0  0  0  0  0  0  0
   -3.5444    1.9513    0.6588 C   0  0  0  0  0  0  0  0  0  0  0  0
   -0.2043   -1.4044   -0.8311 C   0  0  0  0  0  0  0  0  0  0  0  0
   -4.0948    3.0701   -0.2460 C   0  0  0  0  0  0  0  0  0  0  0  0
    0.5368   -0.2184   -0.6901 C   0  0  0  0  0  0  0  0  0  0  0  0
   -5.2724    2.5403   -1.0683 C   0  0  0  0  0  0  0  0  0  0  0  0
   -4.5335    4.3015    0.5480 C   0  0  0  0  0  0  0  0  0  0  0  0
    1.8051   -0.6575   -0.4162 C   0  0  0  0  0  0  0  0  0  0  0  0
    3.0609   -0.0137   -0.1615 C   0  0  0  0  0  0  0  0  0  0  0  0
    3.1443    1.3788   -0.1651 C   0  0  0  0  0  0  0  0  0  0  0  0
    4.1992   -0.7799    0.0889 C   0  0  0  0  0  0  0  0  0  0  0  0
    4.3661    2.0049    0.0814 C   0  0  0  0  0  0  0  0  0  0  0  0
    5.4211   -0.1539    0.3355 C   0  0  0  0  0  0  0  0  0  0  0  0
    5.5045    1.2385    0.3316 C   0  0  0  0  0  0  0  0  0  0  0  0
   -1.5525   -3.4788    0.8348 H   0  0  0  0  0  0  0  0  0  0  0  0
   -1.9075   -2.3410    2.1544 H   0  0  0  0  0  0  0  0  0  0  0  0
   -4.7355   -1.5179    0.3714 H   0  0  0  0  0  0  0  0  0  0  0  0
   -4.1643   -2.6828   -0.8440 H   0  0  0  0  0  0  0  0  0  0  0  0
   -1.9898   -0.7798   -1.8616 H   0  0  0  0  0  0  0  0  0  0  0  0
   -1.8099   -2.4922   -1.6830 H   0  0  0  0  0  0  0  0  0  0  0  0
   -1.6498    0.0336    1.2000 H   0  0  0  0  0  0  0  0  0  0  0  0
   -3.8664    0.3332   -0.7201 H   0  0  0  0  0  0  0  0  0  0  0  0
   -2.2607    1.0714   -0.8062 H   0  0  0  0  0  0  0  0  0  0  0  0
   -2.7201    2.3593    1.2588 H   0  0  0  0  0  0  0  0  0  0  0  0
   -4.3225    1.6400    1.3687 H   0  0  0  0  0  0  0  0  0  0  0  0
   -3.3041    3.3843   -0.9390 H   0  0  0  0  0  0  0  0  0  0  0  0
    0.1939    0.8018   -0.7789 H   0  0  0  0  0  0  0  0  0  0  0  0
   -4.9494    1.8166   -1.8223 H   0  0  0  0  0  0  0  0  0  0  0  0
   -5.7602    3.3569   -1.6126 H   0  0  0  0  0  0  0  0  0  0  0  0
   -6.0273    2.0672   -0.4312 H   0  0  0  0  0  0  0  0  0  0  0  0
   -4.8878    5.0931   -0.1204 H   0  0  0  0  0  0  0  0  0  0  0  0
   -3.6967    4.7032    1.1290 H   0  0  0  0  0  0  0  0  0  0  0  0
   -5.3421    4.0560    1.2447 H   0  0  0  0  0  0  0  0  0  0  0  0
    2.2751    2.0026   -0.3569 H   0  0  0  0  0  0  0  0  0  0  0  0
    4.1748   -1.8666    0.1003 H   0  0  0  0  0  0  0  0  0  0  0  0
    4.4319    3.0889    0.0786 H   0  0  0  0  0  0  0  0  0  0  0  0
    6.3079   -0.7497    0.5304 H   0  0  0  0  0  0  0  0  0  0  0  0
  1 23  1  0  0  0  0
  2  7  1  0  0  0  0
  2  8  1  0  0  0  0
  3  5  1  0  0  0  0
  3 17  1  0  0  0  0
  4  6  1  0  0  0  0
  4 10  1  0  0  0  0
  4 30  1  0  0  0  0
  5 12  2  0  0  0  0
  6  7  1  0  0  0  0
  6  8  1  0  0  0  0
  6  9  1  0  0  0  0
  7 24  1  0  0  0  0
  7 25  1  0  0  0  0
  8 26  1  0  0  0  0
  8 27  1  0  0  0  0
  9 12  1  0  0  0  0
  9 28  1  0  0  0  0
  9 29  1  0  0  0  0
 10 11  1  0  0  0  0
 10 31  1  0  0  0  0
 10 32  1  0  0  0  0
 11 13  1  0  0  0  0
 11 33  1  0  0  0  0
 11 34  1  0  0  0  0
 12 14  1  0  0  0  0
 13 15  1  0  0  0  0
 13 16  1  0  0  0  0
 13 35  1  0  0  0  0
 14 17  2  0  0  0  0
 14 36  1  0  0  0  0
 15 37  1  0  0  0  0
 15 38  1  0  0  0  0
 15 39  1  0  0  0  0
 16 40  1  0  0  0  0
 16 41  1  0  0  0  0
 16 42  1  0  0  0  0
 17 18  1  0  0  0  0
 18 19  2  0  0  0  0
 18 20  1  0  0  0  0
 19 21  1  0  0  0  0
 19 43  1  0  0  0  0
 20 22  2  0  0  0  0
 20 44  1  0  0  0  0
 21 23  2  0  0  0  0
 21 45  1  0  0  0  0
 22 23  1  0  0  0  0
 22 46  1  0  0  0  0
M  END
> <PUBCHEM_COMPOUND_CID>
56775487

> <PUBCHEM_CONFORMER_RMSD>
0.8

> <PUBCHEM_CONFORMER_DIVERSEORDER>
1
61
95
30
86
103
45
84
125
73
35
126
50
106
58
116
52
80
29
114
65
57
69
13
102
37
47
67
44
105
98
23
107
115
74
85
43
88
63
59
130
56
72
81
122
68
24
90
87
109
124
18
42
82
118
70
89
16
53
10
128
71
6
20
119
121
55
91
76
94
46
108
11
120
22
127
31
17
60
36
19
34
100
7
28
39
38
41
110
64
48
15
27
111
77
3
79
97
12
25
54
129
32
123
99
26
9
2
5
113
33
14
101
49
93
21
104
78
62
4
51
83
75
66
40
112
92
96
8
117

> <PUBCHEM_MMFF94_PARTIAL_CHARGES>
25
1 -0.19
10 0.27
12 0.11
14 -0.15
17 0.09
18 0.05
19 -0.15
2 -0.52
20 -0.15
21 -0.15
22 -0.15
23 0.19
3 -0.02
30 0.36
36 0.15
4 -0.84
43 0.15
44 0.15
45 0.15
46 0.15
5 -0.41
6 0.21
7 0.26
8 0.26
9 0.18

> <PUBCHEM_EFFECTIVE_ROTOR_COUNT>
7.8

> <PUBCHEM_PHARMACOPHORE_FEATURES>
8
1 2 acceptor
1 4 cation
1 4 donor
1 5 acceptor
3 13 15 16 hydrophobe
4 2 6 7 8 rings
5 3 5 12 14 17 rings
6 18 19 20 21 22 23 rings

> <PUBCHEM_HEAVY_ATOM_COUNT>
23

> <PUBCHEM_ATOM_DEF_STEREO_COUNT>
0

> <PUBCHEM_ATOM_UDEF_STEREO_COUNT>
0

> <PUBCHEM_BOND_DEF_STEREO_COUNT>
0

> <PUBCHEM_BOND_UDEF_STEREO_COUNT>
0

> <PUBCHEM_ISOTOPIC_ATOM_COUNT>
0

> <PUBCHEM_COMPONENT_COUNT>
1

> <PUBCHEM_CACTVS_TAUTO_COUNT>
1

> <PUBCHEM_CONFORMER_ID>
0362533F00000001

> <PUBCHEM_MMFF94_ENERGY>
44.4531

> <PUBCHEM_FEATURE_SELFOVERLAP>
40.596

> <PUBCHEM_SHAPE_FINGERPRINT>
10291535 26 18410289238222031463
10670039 82 18193576655865606796
11370993 144 18261954055414536414
12107183 9 18117830002689842442
12390115 104 18342470248260482628
12403259 118 18336822087256911528
12596602 18 17533207803195712882
12633257 1 18042672919379088714
12892183 10 18335140951052812350
12930653 34 18409452487818897239
13073987 5 18335698386621341986
13103583 49 12541276390124074581
13540713 4 18270700674492619503
13965767 371 17823983325089913823
14142880 1 18334571352605574759
14178342 30 18114192942499765415
14251764 38 18337393837171431228
14251764 75 17911808977229115353
14466204 15 18412259549894854176
14790565 3 18265338485887082308
17834072 32 18339925905028323229
17844677 252 18337961198588508782
17980427 26 17977371747422783599
20715895 44 18196933262437377400
21033648 29 18130775807197982992
21279426 13 18200886093487228678
21401589 2 18340495452679259273
22956985 138 16676695035491785843
23559900 14 18126851491074293582
283562 15 18335134337114607931
2838139 119 18197774414802610525
3117164 225 18190736441084375602
3246875 12 18339366254607064513
376196 1 18053382102952464687
4144715 1 18336274491817277162
5104073 3 18261660542166384208
5969126 39 18270673311988985399
6371380 46 18046914779542500558
90127 26 18341341062936000862
9981440 41 18411136922705865323

> <PUBCHEM_SHAPE_MULTIPOLES>
444.35
13.6
4.41
0.98
11.96
1.8
-0.01
12.42
1.85
-7.52
0.76
-0.7
-0.26
1.17

> <PUBCHEM_SHAPE_SELFOVERLAP>
937.266

> <PUBCHEM_SHAPE_VOLUME>
253.1

> <PUBCHEM_COORDINATE_TYPE>
2
5
10

$$$$
