45784004
  -OEChem-12032416403D

 70 73  0     1  0  0  0  0  0999 V2000
    5.2748    0.4753   -0.0952 O   0  0  0  0  0  0  0  0  0  0  0  0
   -2.0482   -0.7595    0.6323 N   0  0  0  0  0  0  0  0  0  0  0  0
   -4.6812    0.3108    0.3481 N   0  0  0  0  0  0  0  0  0  0  0  0
    3.9500    1.7836    1.1449 N   0  0  0  0  0  0  0  0  0  0  0  0
    4.7504    2.6003    0.3680 N   0  0  0  0  0  0  0  0  0  0  0  0
   -6.5953    0.4440   -0.9835 N   0  0  0  0  0  0  0  0  0  0  0  0
   -6.3423    1.8295    0.9719 N   0  0  0  0  0  0  0  0  0  0  0  0
    0.5215   -1.0554   -0.7470 C   0  0  1  0  0  0  0  0  0  0  0  0
   -0.0951   -2.1731    0.1258 C   0  0  2  0  0  0  0  0  0  0  0  0
    1.7133   -0.4075   -0.0283 C   0  0  0  0  0  0  0  0  0  0  0  0
    2.8128   -1.4172    0.3652 C   0  0  2  0  0  0  0  0  0  0  0  0
    0.9281   -1.5848   -2.1290 C   0  0  0  0  0  0  0  0  0  0  0  0
   -1.0054   -1.6013    1.2176 C   0  0  0  0  0  0  0  0  0  0  0  0
    0.9498   -3.0536    0.7625 C   0  0  0  0  0  0  0  0  0  0  0  0
    2.2541   -2.7397    0.8682 C   0  0  0  0  0  0  0  0  0  0  0  0
    3.7557   -0.7466    1.3720 C   0  0  0  0  0  0  0  0  0  0  0  0
   -0.2595   -2.2554   -2.8123 C   0  0  0  0  0  0  0  0  0  0  0  0
    1.4800   -0.4537   -2.9907 C   0  0  0  0  0  0  0  0  0  0  0  0
   -2.5864    0.1664    1.6360 C   0  0  0  0  0  0  0  0  0  0  0  0
   -3.1306   -1.5867    0.0847 C   0  0  0  0  0  0  0  0  0  0  0  0
    3.2277   -3.7306    1.4449 C   0  0  0  0  0  0  0  0  0  0  0  0
   -3.6398    1.0921    1.0222 C   0  0  0  0  0  0  0  0  0  0  0  0
   -4.2010   -0.7193   -0.5816 C   0  0  0  0  0  0  0  0  0  0  0  0
    4.2904    0.5528    0.8415 C   0  0  0  0  0  0  0  0  0  0  0  0
   -5.9314    0.8885    0.1006 C   0  0  0  0  0  0  0  0  0  0  0  0
    5.5072    1.7941   -0.3392 C   0  0  0  0  0  0  0  0  0  0  0  0
    6.5402    2.1126   -1.3329 C   0  0  0  0  0  0  0  0  0  0  0  0
    7.9750    1.9576   -0.7837 C   0  0  0  0  0  0  0  0  0  0  0  0
   -7.7964    1.0223   -1.1923 C   0  0  0  0  0  0  0  0  0  0  0  0
   -7.5512    2.3652    0.7033 C   0  0  0  0  0  0  0  0  0  0  0  0
   -8.3303    1.9972   -0.3746 C   0  0  0  0  0  0  0  0  0  0  0  0
    8.2633    2.8918    0.3806 C   0  0  0  0  0  0  0  0  0  0  0  0
   -0.2170   -0.2628   -0.9216 H   0  0  0  0  0  0  0  0  0  0  0  0
   -0.7110   -2.8458   -0.4718 H   0  0  0  0  0  0  0  0  0  0  0  0
    2.1244    0.4118   -0.6260 H   0  0  0  0  0  0  0  0  0  0  0  0
    1.3316    0.0790    0.8804 H   0  0  0  0  0  0  0  0  0  0  0  0
    3.3939   -1.6464   -0.5395 H   0  0  0  0  0  0  0  0  0  0  0  0
    1.7152   -2.3434   -2.0433 H   0  0  0  0  0  0  0  0  0  0  0  0
   -0.3892   -1.0080    1.9067 H   0  0  0  0  0  0  0  0  0  0  0  0
   -1.4392   -2.4042    1.8303 H   0  0  0  0  0  0  0  0  0  0  0  0
    0.5996   -4.0129    1.1379 H   0  0  0  0  0  0  0  0  0  0  0  0
    3.2378   -0.5572    2.3206 H   0  0  0  0  0  0  0  0  0  0  0  0
    4.6112   -1.3935    1.5995 H   0  0  0  0  0  0  0  0  0  0  0  0
   -1.1724   -1.6566   -2.7253 H   0  0  0  0  0  0  0  0  0  0  0  0
   -0.4526   -3.2591   -2.4232 H   0  0  0  0  0  0  0  0  0  0  0  0
   -0.0618   -2.3912   -3.8822 H   0  0  0  0  0  0  0  0  0  0  0  0
    0.8015    0.4057   -3.0144 H   0  0  0  0  0  0  0  0  0  0  0  0
    1.6217   -0.7894   -4.0244 H   0  0  0  0  0  0  0  0  0  0  0  0
    2.4616   -0.1151   -2.6465 H   0  0  0  0  0  0  0  0  0  0  0  0
   -1.7824    0.7932    2.0410 H   0  0  0  0  0  0  0  0  0  0  0  0
   -3.0260   -0.3870    2.4768 H   0  0  0  0  0  0  0  0  0  0  0  0
   -2.7574   -2.2808   -0.6750 H   0  0  0  0  0  0  0  0  0  0  0  0
   -3.5945   -2.1912    0.8761 H   0  0  0  0  0  0  0  0  0  0  0  0
    4.0708   -3.8765    0.7618 H   0  0  0  0  0  0  0  0  0  0  0  0
    2.7690   -4.7117    1.6097 H   0  0  0  0  0  0  0  0  0  0  0  0
    3.6102   -3.3818    2.4090 H   0  0  0  0  0  0  0  0  0  0  0  0
   -4.0537    1.7034    1.8326 H   0  0  0  0  0  0  0  0  0  0  0  0
   -3.1730    1.7746    0.3006 H   0  0  0  0  0  0  0  0  0  0  0  0
   -5.0111   -1.3919   -0.8896 H   0  0  0  0  0  0  0  0  0  0  0  0
   -3.7975   -0.2423   -1.4840 H   0  0  0  0  0  0  0  0  0  0  0  0
    6.4232    1.4577   -2.2045 H   0  0  0  0  0  0  0  0  0  0  0  0
    6.3990    3.1389   -1.6919 H   0  0  0  0  0  0  0  0  0  0  0  0
    8.6839    2.1663   -1.5935 H   0  0  0  0  0  0  0  0  0  0  0  0
    8.1441    0.9219   -0.4655 H   0  0  0  0  0  0  0  0  0  0  0  0
   -8.3359    0.6683   -2.0643 H   0  0  0  0  0  0  0  0  0  0  0  0
   -7.8875    3.1240    1.4018 H   0  0  0  0  0  0  0  0  0  0  0  0
   -9.2967    2.4439   -0.5661 H   0  0  0  0  0  0  0  0  0  0  0  0
    9.3120    2.8025    0.6819 H   0  0  0  0  0  0  0  0  0  0  0  0
    8.0796    3.9346    0.1026 H   0  0  0  0  0  0  0  0  0  0  0  0
    7.6473    2.6526    1.2529 H   0  0  0  0  0  0  0  0  0  0  0  0
  1 24  1  0  0  0  0
  1 26  1  0  0  0  0
  2 13  1  0  0  0  0
  2 19  1  0  0  0  0
  2 20  1  0  0  0  0
  3 22  1  0  0  0  0
  3 23  1  0  0  0  0
  3 25  1  0  0  0  0
  4  5  1  0  0  0  0
  4 24  2  0  0  0  0
  5 26  2  0  0  0  0
  6 25  2  0  0  0  0
  6 29  1  0  0  0  0
  7 25  1  0  0  0  0
  7 30  2  0  0  0  0
  8  9  1  0  0  0  0
  8 10  1  0  0  0  0
  8 12  1  0  0  0  0
  8 33  1  0  0  0  0
  9 13  1  0  0  0  0
  9 14  1  0  0  0  0
  9 34  1  0  0  0  0
 10 11  1  0  0  0  0
 10 35  1  0  0  0  0
 10 36  1  0  0  0  0
 11 15  1  0  0  0  0
 11 16  1  0  0  0  0
 11 37  1  0  0  0  0
 12 17  1  0  0  0  0
 12 18  1  0  0  0  0
 12 38  1  0  0  0  0
 13 39  1  0  0  0  0
 13 40  1  0  0  0  0
 14 15  2  0  0  0  0
 14 41  1  0  0  0  0
 15 21  1  0  0  0  0
 16 24  1  0  0  0  0
 16 42  1  0  0  0  0
 16 43  1  0  0  0  0
 17 44  1  0  0  0  0
 17 45  1  0  0  0  0
 17 46  1  0  0  0  0
 18 47  1  0  0  0  0
 18 48  1  0  0  0  0
 18 49  1  0  0  0  0
 19 22  1  0  0  0  0
 19 50  1  0  0  0  0
 19 51  1  0  0  0  0
 20 23  1  0  0  0  0
 20 52  1  0  0  0  0
 20 53  1  0  0  0  0
 21 54  1  0  0  0  0
 21 55  1  0  0  0  0
 21 56  1  0  0  0  0
 22 57  1  0  0  0  0
 22 58  1  0  0  0  0
 23 59  1  0  0  0  0
 23 60  1  0  0  0  0
 26 27  1  0  0  0  0
 27 28  1  0  0  0  0
 27 61  1  0  0  0  0
 27 62  1  0  0  0  0
 28 32  1  0  0  0  0
 28 63  1  0  0  0  0
 28 64  1  0  0  0  0
 29 31  2  0  0  0  0
 29 65  1  0  0  0  0
 30 31  1  0  0  0  0
 30 66  1  0  0  0  0
 31 67  1  0  0  0  0
 32 68  1  0  0  0  0
 32 69  1  0  0  0  0
 32 70  1  0  0  0  0
M  END
> <PUBCHEM_COMPOUND_CID>
45784004

> <PUBCHEM_CONFORMER_RMSD>
1

> <PUBCHEM_CONFORMER_DIVERSEORDER>
14
119
13
33
53
65
142
104
9
127
85
143
23
60
22
94
7
125
116
76
17
102
148
130
114
21
134
93
1
132
80
144
18
43
67
5
123
68
38
129
120
66
126
78
77
135
40
145
131
140
2
96
147
90
91
61
32
99
69
137
30
26
111
41
70
6
100
139
25
84
97
49
79
52
146
57
82
56
71
121
29
35
55
48
107
113
115
83
75
31
112
27
128
39
73
64
58
95
15
92
103
24
89
133
74
124
117
118
3
45
86
110
47
98
36
20
10
108
106
109
8
136
34
141
44
54
72
105
122
88
12
62
101
16
11
138
87
4
63
42
46
51
28
59
37
19
81
50

> <PUBCHEM_MMFF94_PARTIAL_CHARGES>
29
1 -0.28
11 0.14
13 0.27
14 -0.29
15 -0.28
16 0.18
19 0.27
2 -0.81
20 0.27
21 0.14
22 0.37
23 0.37
24 0.3
25 0.72
26 0.3
27 0.18
29 0.16
3 -0.84
30 0.16
31 -0.15
4 -0.34
41 0.15
5 -0.34
6 -0.62
65 0.15
66 0.15
67 0.15
7 -0.62
9 0.14

> <PUBCHEM_EFFECTIVE_ROTOR_COUNT>
10

> <PUBCHEM_PHARMACOPHORE_FEATURES>
9
1 2 cation
1 32 hydrophobe
1 7 acceptor
3 12 17 18 hydrophobe
4 3 6 7 25 cation
5 1 4 5 24 26 rings
6 2 3 19 20 22 23 rings
6 6 7 25 29 30 31 rings
6 8 9 10 11 14 15 rings

> <PUBCHEM_HEAVY_ATOM_COUNT>
32

> <PUBCHEM_ATOM_DEF_STEREO_COUNT>
3

> <PUBCHEM_ATOM_UDEF_STEREO_COUNT>
0

> <PUBCHEM_BOND_DEF_STEREO_COUNT>
0

> <PUBCHEM_BOND_UDEF_STEREO_COUNT>
0

> <PUBCHEM_ISOTOPIC_ATOM_COUNT>
0

> <PUBCHEM_COMPONENT_COUNT>
1

> <PUBCHEM_CACTVS_TAUTO_COUNT>
1

> <PUBCHEM_CONFORMER_ID>
02BA9BC40000000E

> <PUBCHEM_MMFF94_ENERGY>
66.7647

> <PUBCHEM_FEATURE_SELFOVERLAP>
45.672

> <PUBCHEM_SHAPE_FINGERPRINT>
10006869 2 18410568453861542248
10165383 225 17968102997987800686
11297750 10 16953363587511136738
11443803 9 17846490440407346666
11828532 37 12966831494834157925
12035758 1 15719390633584067959
12047536 79 16878771696068490205
12422481 6 16371001971096803422
12522641 126 17131557120213149726
13150687 139 17632306683069946212
13248334 5 18191865626800208858
14347332 77 9295290551969100475
14400156 96 17967531276887760655
14931854 50 18060425724474203432
15082195 135 17346599634443215275
15198563 99 17623848337170198254
15350500 55 18040432196096688209
15840311 113 18261112932918674903
17852330 162 15050874465031964904
17980427 23 17458628977160891959
19841028 212 10015574013269655381
2026 5 11167955644619553636
20642791 268 17676490600581935134
20691028 202 18118122713623206988
20721686 146 18259707813351901396
20775438 99 11527075933755127700
21033648 29 17386012766706992667
21057603 130 8862950502537199668
21298829 104 18407762538626385997
21344244 181 12967120636184593229
21521239 73 13830134988185500262
21756936 100 18267864076986000458
21792938 703 11455593409709680212
23522609 53 17844820187982614457
23559900 14 16951987050624430331
23569943 247 10807941462111146445
24771293 8 17749106712382727991
3103668 31 16699750510220497591
3411729 13 18259983765190741986
3472631 163 18342737395368867803
3918712 181 18411695530590217088
397830 11 17822585953934351291
406291 66 10375881757710668204
4073 2 18186523211617077595
4169191 19 18335137575546127877
4461854 278 11602539828007666216
44802255 64 17201651176110633820
5104073 3 14780136142004115977
54039377 194 9943532916517850184
56638632 10 18043241543026876972
57359948 33 17129860514301317941
57527293 21 16805875291118857650

> <PUBCHEM_SHAPE_MULTIPOLES>
622.79
22.77
3.78
1.96
15.9
1.06
-1.56
-30.75
-0.95
-4.74
0.75
-0.5
0.94
-1.46

> <PUBCHEM_SHAPE_SELFOVERLAP>
1296.65

> <PUBCHEM_SHAPE_VOLUME>
351.9

> <PUBCHEM_COORDINATE_TYPE>
2
5
10

$$$$
