40777710
  -OEChem-12032416173D

 74 77  0     1  0  0  0  0  0999 V2000
   -4.1708    2.5756   -0.4627 O   0  0  0  0  0  0  0  0  0  0  0  0
   -3.9321   -1.8785    0.1901 O   0  0  0  0  0  0  0  0  0  0  0  0
   -6.1338   -2.4562    0.1913 O   0  0  0  0  0  0  0  0  0  0  0  0
   -3.4295    0.6436   -1.5205 N   0  0  0  0  0  0  0  0  0  0  0  0
    2.9508   -0.8756    0.0811 N   0  0  0  0  0  0  0  0  0  0  0  0
    2.5872   -2.0361    0.6532 N   0  0  0  0  0  0  0  0  0  0  0  0
   -6.3023    0.5958    0.4609 C   0  0  0  0  0  0  0  0  0  0  0  0
   -6.4533    1.9251    1.2132 C   0  0  0  0  0  0  0  0  0  0  0  0
   -7.7516    0.0912    0.4283 C   0  0  0  0  0  0  0  0  0  0  0  0
   -7.5036    1.6558    2.2884 C   0  0  0  0  0  0  0  0  0  0  0  0
   -8.3367    0.4772    1.7848 C   0  0  0  0  0  0  0  0  0  0  0  0
   -5.7475    0.8064   -0.9494 C   0  0  0  0  0  0  0  0  0  0  0  0
   -5.3894   -0.3773    1.2244 C   0  0  0  0  0  0  0  0  0  0  0  0
   -4.3840    1.4622   -0.9348 C   0  0  0  0  0  0  0  0  0  0  0  0
   -2.0454    1.0153   -1.6449 C   0  0  1  0  0  0  0  0  0  0  0  0
   -5.2411   -1.6772    0.4898 C   0  0  0  0  0  0  0  0  0  0  0  0
   -1.1873    0.5047   -0.4807 C   0  0  0  0  0  0  0  0  0  0  0  0
   -0.5585   -0.8170   -0.9683 C   0  0  1  0  0  0  0  0  0  0  0  0
   -1.4539    0.3159   -2.8243 C   0  0  0  0  0  0  0  0  0  0  0  0
   -0.6400   -0.6810   -2.4611 C   0  0  0  0  0  0  0  0  0  0  0  0
    0.8343   -1.0503   -0.4300 C   0  0  0  0  0  0  0  0  0  0  0  0
    1.9374   -0.2458   -0.5798 C   0  0  0  0  0  0  0  0  0  0  0  0
    1.2932   -2.1374    0.3377 C   0  0  0  0  0  0  0  0  0  0  0  0
    2.1051    1.0430   -1.2818 C   0  0  0  0  0  0  0  0  0  0  0  0
    0.5245   -3.3068    0.7990 C   0  0  0  0  0  0  0  0  0  0  0  0
    4.2668   -0.4277    0.2003 C   0  0  0  0  0  0  0  0  0  0  0  0
    8.3048    0.9429    0.5788 C   0  0  0  0  0  0  0  0  0  0  0  0
    6.8979    0.4660    0.4467 C   0  0  0  0  0  0  0  0  0  0  0  0
    5.3162   -1.2047   -0.2906 C   0  0  0  0  0  0  0  0  0  0  0  0
    4.5331    0.7960    0.8146 C   0  0  0  0  0  0  0  0  0  0  0  0
    6.6316   -0.7578   -0.1674 C   0  0  0  0  0  0  0  0  0  0  0  0
    5.8487    1.2428    0.9377 C   0  0  0  0  0  0  0  0  0  0  0  0
    8.9820    1.1006   -0.8180 C   0  0  0  0  0  0  0  0  0  0  0  0
    9.1664   -0.0587    1.4086 C   0  0  0  0  0  0  0  0  0  0  0  0
    8.4809    2.3279    1.2854 C   0  0  0  0  0  0  0  0  0  0  0  0
   -6.8248    2.7130    0.5454 H   0  0  0  0  0  0  0  0  0  0  0  0
   -5.5231    2.2812    1.6673 H   0  0  0  0  0  0  0  0  0  0  0  0
   -7.8913   -0.9696    0.2215 H   0  0  0  0  0  0  0  0  0  0  0  0
   -8.3122    0.6277   -0.3495 H   0  0  0  0  0  0  0  0  0  0  0  0
   -8.1216    2.5412    2.4693 H   0  0  0  0  0  0  0  0  0  0  0  0
   -7.0237    1.3942    3.2385 H   0  0  0  0  0  0  0  0  0  0  0  0
   -8.2617   -0.3602    2.4880 H   0  0  0  0  0  0  0  0  0  0  0  0
   -9.3966    0.7378    1.7002 H   0  0  0  0  0  0  0  0  0  0  0  0
   -6.4006    1.4858   -1.5144 H   0  0  0  0  0  0  0  0  0  0  0  0
   -5.7450   -0.1256   -1.5255 H   0  0  0  0  0  0  0  0  0  0  0  0
   -4.4018    0.0694    1.3945 H   0  0  0  0  0  0  0  0  0  0  0  0
   -5.7763   -0.6160    2.2221 H   0  0  0  0  0  0  0  0  0  0  0  0
   -1.9595    2.1032   -1.7363 H   0  0  0  0  0  0  0  0  0  0  0  0
   -1.7684    0.3484    0.4363 H   0  0  0  0  0  0  0  0  0  0  0  0
   -0.4281    1.2572   -0.2370 H   0  0  0  0  0  0  0  0  0  0  0  0
   -3.7012   -0.2826   -1.8384 H   0  0  0  0  0  0  0  0  0  0  0  0
   -1.2031   -1.6553   -0.6752 H   0  0  0  0  0  0  0  0  0  0  0  0
   -1.6733    0.5741   -3.8506 H   0  0  0  0  0  0  0  0  0  0  0  0
   -0.1323   -1.3316   -3.1592 H   0  0  0  0  0  0  0  0  0  0  0  0
   -3.7922   -2.7188   -0.2963 H   0  0  0  0  0  0  0  0  0  0  0  0
    2.0463    1.8776   -0.5759 H   0  0  0  0  0  0  0  0  0  0  0  0
    3.0655    1.0982   -1.8050 H   0  0  0  0  0  0  0  0  0  0  0  0
    1.3370    1.2031   -2.0417 H   0  0  0  0  0  0  0  0  0  0  0  0
    0.1294   -3.8674   -0.0545 H   0  0  0  0  0  0  0  0  0  0  0  0
    1.1394   -3.9918    1.3923 H   0  0  0  0  0  0  0  0  0  0  0  0
   -0.3185   -2.9910    1.4222 H   0  0  0  0  0  0  0  0  0  0  0  0
    5.1263   -2.1593   -0.7754 H   0  0  0  0  0  0  0  0  0  0  0  0
    3.7311    1.4094    1.2181 H   0  0  0  0  0  0  0  0  0  0  0  0
    7.4293   -1.3825   -0.5592 H   0  0  0  0  0  0  0  0  0  0  0  0
    5.9992    2.1990    1.4264 H   0  0  0  0  0  0  0  0  0  0  0  0
   10.0067    1.4784   -0.7239 H   0  0  0  0  0  0  0  0  0  0  0  0
    9.0372    0.1479   -1.3559 H   0  0  0  0  0  0  0  0  0  0  0  0
    8.4205    1.8027   -1.4456 H   0  0  0  0  0  0  0  0  0  0  0  0
   10.1934    0.3047    1.5308 H   0  0  0  0  0  0  0  0  0  0  0  0
    8.7397   -0.2040    2.4080 H   0  0  0  0  0  0  0  0  0  0  0  0
    9.2267   -1.0418    0.9291 H   0  0  0  0  0  0  0  0  0  0  0  0
    9.5393    2.6096    1.3442 H   0  0  0  0  0  0  0  0  0  0  0  0
    7.9670    3.1265    0.7377 H   0  0  0  0  0  0  0  0  0  0  0  0
    8.0979    2.3065    2.3125 H   0  0  0  0  0  0  0  0  0  0  0  0
  1 14  2  0  0  0  0
  2 16  1  0  0  0  0
  2 55  1  0  0  0  0
  3 16  2  0  0  0  0
  4 14  1  0  0  0  0
  4 15  1  0  0  0  0
  4 51  1  0  0  0  0
  5  6  1  0  0  0  0
  5 22  1  0  0  0  0
  5 26  1  0  0  0  0
  6 23  2  0  0  0  0
  7  8  1  0  0  0  0
  7  9  1  0  0  0  0
  7 12  1  0  0  0  0
  7 13  1  0  0  0  0
  8 10  1  0  0  0  0
  8 36  1  0  0  0  0
  8 37  1  0  0  0  0
  9 11  1  0  0  0  0
  9 38  1  0  0  0  0
  9 39  1  0  0  0  0
 10 11  1  0  0  0  0
 10 40  1  0  0  0  0
 10 41  1  0  0  0  0
 11 42  1  0  0  0  0
 11 43  1  0  0  0  0
 12 14  1  0  0  0  0
 12 44  1  0  0  0  0
 12 45  1  0  0  0  0
 13 16  1  0  0  0  0
 13 46  1  0  0  0  0
 13 47  1  0  0  0  0
 15 17  1  0  0  0  0
 15 19  1  0  0  0  0
 15 48  1  0  0  0  0
 17 18  1  0  0  0  0
 17 49  1  0  0  0  0
 17 50  1  0  0  0  0
 18 20  1  0  0  0  0
 18 21  1  0  0  0  0
 18 52  1  0  0  0  0
 19 20  2  0  0  0  0
 19 53  1  0  0  0  0
 20 54  1  0  0  0  0
 21 22  2  0  0  0  0
 21 23  1  0  0  0  0
 22 24  1  0  0  0  0
 23 25  1  0  0  0  0
 24 56  1  0  0  0  0
 24 57  1  0  0  0  0
 24 58  1  0  0  0  0
 25 59  1  0  0  0  0
 25 60  1  0  0  0  0
 25 61  1  0  0  0  0
 26 29  2  0  0  0  0
 26 30  1  0  0  0  0
 27 28  1  0  0  0  0
 27 33  1  0  0  0  0
 27 34  1  0  0  0  0
 27 35  1  0  0  0  0
 28 31  2  0  0  0  0
 28 32  1  0  0  0  0
 29 31  1  0  0  0  0
 29 62  1  0  0  0  0
 30 32  2  0  0  0  0
 30 63  1  0  0  0  0
 31 64  1  0  0  0  0
 32 65  1  0  0  0  0
 33 66  1  0  0  0  0
 33 67  1  0  0  0  0
 33 68  1  0  0  0  0
 34 69  1  0  0  0  0
 34 70  1  0  0  0  0
 34 71  1  0  0  0  0
 35 72  1  0  0  0  0
 35 73  1  0  0  0  0
 35 74  1  0  0  0  0
M  END
> <PUBCHEM_COMPOUND_CID>
40777710

> <PUBCHEM_CONFORMER_RMSD>
1

> <PUBCHEM_CONFORMER_DIVERSEORDER>
1
84
117
123
58
189
130
127
212
201
184
44
49
43
27
60
134
42
169
118
182
87
179
143
146
190
119
36
211
131
79
21
198
150
195
154
158
141
187
132
106
23
94
168
68
145
185
95
25
128
65
98
13
165
93
32
53
91
19
56
152
70
116
121
54
193
188
34
41
55
26
140
209
31
172
39
213
62
112
176
125
22
72
151
205
122
66
114
35
156
202
147
37
29
103
142
120
206
155
162
73
164
90
110
124
133
47
38
74
208
160
80
104
11
69
63
107
207
51
135
82
136
96
153
89
71
20
77
192
86
76
102
197
59
210
137
113
7
83
109
196
100
75
149
99
8
97
173
85
9
48
199
148
144
177
45
115
18
105
50
170
138
167
203
157
101
15
186
181
215
10
30
12
139
163
88
61
78
183
14
16
178
166
67
191
159
171
129
17
180
194
57
174
33
214
6
40
24
64
126
28
81
46
204
111
161
108
3
92
52
4
2
5
200
175

> <PUBCHEM_MMFF94_PARTIAL_CHARGES>
34
1 -0.57
12 0.06
13 0.06
14 0.57
15 0.44
16 0.66
18 0.32
19 -0.29
2 -0.65
20 -0.29
21 -0.18
22 -0.33
23 0.11
24 0.18
25 0.18
26 -0.02
27 0.14
28 -0.14
29 -0.15
3 -0.57
30 -0.15
31 -0.15
32 -0.15
4 -0.73
5 0.59
51 0.37
53 0.15
54 0.15
55 0.5
6 -0.71
62 0.15
63 0.15
64 0.15
65 0.15

> <PUBCHEM_EFFECTIVE_ROTOR_COUNT>
10.6

> <PUBCHEM_PHARMACOPHORE_FEATURES>
11
1 1 acceptor
1 2 acceptor
1 3 acceptor
1 4 donor
1 6 acceptor
3 2 3 16 anion
4 27 33 34 35 hydrophobe
5 15 17 18 19 20 rings
5 5 6 21 22 23 rings
5 7 8 9 10 11 rings
6 26 28 29 30 31 32 rings

> <PUBCHEM_HEAVY_ATOM_COUNT>
35

> <PUBCHEM_ATOM_DEF_STEREO_COUNT>
2

> <PUBCHEM_ATOM_UDEF_STEREO_COUNT>
0

> <PUBCHEM_BOND_DEF_STEREO_COUNT>
0

> <PUBCHEM_BOND_UDEF_STEREO_COUNT>
0

> <PUBCHEM_ISOTOPIC_ATOM_COUNT>
0

> <PUBCHEM_COMPONENT_COUNT>
1

> <PUBCHEM_CACTVS_TAUTO_COUNT>
2

> <PUBCHEM_CONFORMER_ID>
026E37EE00000001

> <PUBCHEM_MMFF94_ENERGY>
105.0723

> <PUBCHEM_FEATURE_SELFOVERLAP>
55.879

> <PUBCHEM_SHAPE_FINGERPRINT>
10 15 18113614586735490960
10369192 42 18343580750477597454
10483366 6 11240002239292858101
10533779 47 18261661582134533042
106641 1 16950564394199335820
10674148 151 16343696634902407378
11135609 99 13984674662920614000
11181472 205 16200163054112703112
11200772 48 12391507611483312389
11315181 36 18131064940644597197
11456790 92 18338218394706238480
12218070 45 18188772880853014543
12539765 74 17988931089617616782
12645989 146 8934989374649238379
12838862 33 17531238449554356703
14068700 675 12973606624985466167
14849402 71 18410574032855969388
15183329 4 12247680456772282263
15320294 125 15357704110690368851
15347590 135 17967251966337547889
15357212 105 17898296263166110188
15461852 350 16487252201529577007
1577012 14 16845283921818356724
16126227 98 18411134762357881390
16993089 31 13335559196820706658
18603816 31 13767933450939688041
18608769 82 18334852840330004230
19303781 99 16081949173506840259
19315958 150 18262520270112645795
19841028 212 11747475234693745184
2026 5 11314301741682542168
20505436 4 17703784804109927246
21033648 29 18268697463876257058
21095123 293 17489591147010227752
21756936 100 18131061649702876359
21792965 106 15481837753246992138
22149856 69 17822864043590771156
22224240 67 18187364324520469882
23576562 1 12030916171773361344
24771293 8 18335421296331454454
2747138 104 17822014168526579780
3178227 256 18186523202836841908
3383291 50 15502382226933371849
354706 132 15554442986639974533
3633792 109 15698285508727223356
3711267 37 17775569745298052304
392239 28 18334296474751514213
4093350 32 17775286033075331718
4403749 210 18041268924730041951
474113 269 12612749112441859232
5080951 261 15502641677924125135
5104073 3 17896593986245463979
5758199 1 18410856551218932994
5911458 16 17561085808401100016
59682541 35 18186805789988354537
5969126 39 11963383033713723294
6081469 158 9943808889699112848
6201320 82 15265960762222127105
6698420 124 18343863342815743858
9689198 14 17775006786416163140
9953998 17 18333452041268176057

> <PUBCHEM_SHAPE_MULTIPOLES>
687.73
29.46
2.42
1.9
20.83
0.88
0.77
-14.98
-15.67
-0.8
-0.82
-2.1
-0.45
0.09

> <PUBCHEM_SHAPE_SELFOVERLAP>
1468.936

> <PUBCHEM_SHAPE_VOLUME>
387

> <PUBCHEM_COORDINATE_TYPE>
2
5
10

$$$$
