26745329
  -OEChem-12032416183D

 51 54  0     1  0  0  0  0  0999 V2000
    6.3120    2.4940   -0.0174 Cl  0  0  0  0  0  0  0  0  0  0  0  0
   -2.5151   -1.5819    0.4493 O   0  0  0  0  0  0  0  0  0  0  0  0
    0.4432   -0.7119   -0.3889 N   0  0  2  0  0  0  0  0  0  0  0  0
   -2.4587    0.5389   -0.5091 N   0  0  0  0  0  0  0  0  0  0  0  0
    0.8197   -4.0298    1.2722 N   0  0  0  0  0  0  0  0  0  0  0  0
   -0.3124   -4.8018   -0.4953 N   0  0  0  0  0  0  0  0  0  0  0  0
   -3.6237    1.0853    0.1507 C   0  0  0  0  0  0  0  0  0  0  0  0
   -3.2508    1.7086    1.5001 C   0  0  0  0  0  0  0  0  0  0  0  0
   -4.3425    2.0968   -0.7485 C   0  0  0  0  0  0  0  0  0  0  0  0
   -0.7929   -1.0714   -1.1286 C   0  0  1  0  0  0  0  0  0  0  0  0
   -2.4730    3.0154    1.3458 C   0  0  0  0  0  0  0  0  0  0  0  0
   -3.5630    3.4031   -0.8992 C   0  0  0  0  0  0  0  0  0  0  0  0
   -3.2134    4.0096    0.4563 C   0  0  0  0  0  0  0  0  0  0  0  0
   -0.8232   -2.5614   -1.5768 C   0  0  0  0  0  0  0  0  0  0  0  0
   -2.0060   -0.7526   -0.3000 C   0  0  0  0  0  0  0  0  0  0  0  0
    0.6894   -1.5093    0.8350 C   0  0  0  0  0  0  0  0  0  0  0  0
   -0.2504   -3.4376   -0.5274 C   0  0  0  0  0  0  0  0  0  0  0  0
    0.4453   -2.9401    0.5470 C   0  0  0  0  0  0  0  0  0  0  0  0
    0.5647    0.7187   -0.1257 C   0  0  0  0  0  0  0  0  0  0  0  0
    2.0028    1.1638   -0.0989 C   0  0  0  0  0  0  0  0  0  0  0  0
    0.3407   -5.1289    0.6027 C   0  0  0  0  0  0  0  0  0  0  0  0
    2.7154    1.1474    1.1001 C   0  0  0  0  0  0  0  0  0  0  0  0
    2.6225    1.5923   -1.2728 C   0  0  0  0  0  0  0  0  0  0  0  0
    4.0475    1.5598    1.1253 C   0  0  0  0  0  0  0  0  0  0  0  0
    3.9548    2.0047   -1.2476 C   0  0  0  0  0  0  0  0  0  0  0  0
    4.6673    1.9885   -0.0485 C   0  0  0  0  0  0  0  0  0  0  0  0
   -4.3088    0.2496    0.3402 H   0  0  0  0  0  0  0  0  0  0  0  0
   -2.6604    1.0048    2.0991 H   0  0  0  0  0  0  0  0  0  0  0  0
   -4.1701    1.9110    2.0645 H   0  0  0  0  0  0  0  0  0  0  0  0
   -5.3262    2.3215   -0.3167 H   0  0  0  0  0  0  0  0  0  0  0  0
   -4.5220    1.6644   -1.7402 H   0  0  0  0  0  0  0  0  0  0  0  0
   -0.8375   -0.4839   -2.0561 H   0  0  0  0  0  0  0  0  0  0  0  0
   -1.4843    2.8150    0.9189 H   0  0  0  0  0  0  0  0  0  0  0  0
   -2.3062    3.4604    2.3334 H   0  0  0  0  0  0  0  0  0  0  0  0
   -4.1604    4.1188   -1.4757 H   0  0  0  0  0  0  0  0  0  0  0  0
   -2.6441    3.2304   -1.4717 H   0  0  0  0  0  0  0  0  0  0  0  0
   -4.1336    4.3322    0.9589 H   0  0  0  0  0  0  0  0  0  0  0  0
   -2.5984    4.9051    0.3124 H   0  0  0  0  0  0  0  0  0  0  0  0
   -0.2134   -2.6745   -2.4818 H   0  0  0  0  0  0  0  0  0  0  0  0
   -1.8425   -2.8810   -1.8218 H   0  0  0  0  0  0  0  0  0  0  0  0
   -1.9623    1.1402   -1.1576 H   0  0  0  0  0  0  0  0  0  0  0  0
    0.0399   -1.1886    1.6587 H   0  0  0  0  0  0  0  0  0  0  0  0
    1.7295   -1.4019    1.1580 H   0  0  0  0  0  0  0  0  0  0  0  0
    0.0588    1.0126    0.8027 H   0  0  0  0  0  0  0  0  0  0  0  0
    0.0910    1.3060   -0.9220 H   0  0  0  0  0  0  0  0  0  0  0  0
    1.3454   -4.0347    2.1364 H   0  0  0  0  0  0  0  0  0  0  0  0
    0.5025   -6.1327    0.9690 H   0  0  0  0  0  0  0  0  0  0  0  0
    2.2432    0.8270    2.0249 H   0  0  0  0  0  0  0  0  0  0  0  0
    2.0800    1.6075   -2.2144 H   0  0  0  0  0  0  0  0  0  0  0  0
    4.5898    1.5436    2.0672 H   0  0  0  0  0  0  0  0  0  0  0  0
    4.4252    2.3352   -2.1701 H   0  0  0  0  0  0  0  0  0  0  0  0
  1 26  1  0  0  0  0
  2 15  2  0  0  0  0
  3 10  1  0  0  0  0
  3 16  1  0  0  0  0
  3 19  1  0  0  0  0
  4  7  1  0  0  0  0
  4 15  1  0  0  0  0
  4 41  1  0  0  0  0
  5 18  1  0  0  0  0
  5 21  1  0  0  0  0
  5 46  1  0  0  0  0
  6 17  1  0  0  0  0
  6 21  2  0  0  0  0
  7  8  1  0  0  0  0
  7  9  1  0  0  0  0
  7 27  1  0  0  0  0
  8 11  1  0  0  0  0
  8 28  1  0  0  0  0
  8 29  1  0  0  0  0
  9 12  1  0  0  0  0
  9 30  1  0  0  0  0
  9 31  1  0  0  0  0
 10 14  1  0  0  0  0
 10 15  1  0  0  0  0
 10 32  1  0  0  0  0
 11 13  1  0  0  0  0
 11 33  1  0  0  0  0
 11 34  1  0  0  0  0
 12 13  1  0  0  0  0
 12 35  1  0  0  0  0
 12 36  1  0  0  0  0
 13 37  1  0  0  0  0
 13 38  1  0  0  0  0
 14 17  1  0  0  0  0
 14 39  1  0  0  0  0
 14 40  1  0  0  0  0
 16 18  1  0  0  0  0
 16 42  1  0  0  0  0
 16 43  1  0  0  0  0
 17 18  2  0  0  0  0
 19 20  1  0  0  0  0
 19 44  1  0  0  0  0
 19 45  1  0  0  0  0
 20 22  2  0  0  0  0
 20 23  1  0  0  0  0
 21 47  1  0  0  0  0
 22 24  1  0  0  0  0
 22 48  1  0  0  0  0
 23 25  2  0  0  0  0
 23 49  1  0  0  0  0
 24 26  2  0  0  0  0
 24 50  1  0  0  0  0
 25 26  1  0  0  0  0
 25 51  1  0  0  0  0
M  END
> <PUBCHEM_COMPOUND_CID>
26745329

> <PUBCHEM_CONFORMER_RMSD>
0.8

> <PUBCHEM_CONFORMER_DIVERSEORDER>
1
59
43
34
99
91
89
111
96
71
36
41
30
37
51
14
87
94
31
93
113
55
74
7
40
101
45
29
88
106
77
82
27
84
79
38
73
100
112
12
75
35
114
53
60
13
90
68
80
67
15
97
10
76
56
108
28
102
3
19
105
25
104
24
61
83
64
9
8
17
39
62
78
20
107
86
63
54
32
52
4
46
66
95
23
26
48
42
44
70
72
110
109
69
57
47
33
81
49
18
115
103
11
98
85
6
22
21
50
92
16
58
5
65
2

> <PUBCHEM_MMFF94_PARTIAL_CHARGES>
28
1 -0.18
10 0.33
14 0.18
15 0.57
16 0.45
17 0.05
18 -0.33
19 0.41
2 -0.57
20 -0.14
21 0.04
22 -0.15
23 -0.15
24 -0.15
25 -0.15
26 0.18
3 -0.81
4 -0.73
41 0.37
46 0.27
47 0.15
48 0.15
49 0.15
5 0.03
50 0.15
51 0.15
6 -0.57
7 0.3

> <PUBCHEM_EFFECTIVE_ROTOR_COUNT>
7

> <PUBCHEM_PHARMACOPHORE_FEATURES>
9
1 2 acceptor
1 3 cation
1 4 donor
1 5 donor
3 5 6 21 cation
5 5 6 17 18 21 rings
6 20 22 23 24 25 26 rings
6 3 10 14 16 17 18 rings
6 7 8 9 11 12 13 rings

> <PUBCHEM_HEAVY_ATOM_COUNT>
26

> <PUBCHEM_ATOM_DEF_STEREO_COUNT>
1

> <PUBCHEM_ATOM_UDEF_STEREO_COUNT>
0

> <PUBCHEM_BOND_DEF_STEREO_COUNT>
0

> <PUBCHEM_BOND_UDEF_STEREO_COUNT>
0

> <PUBCHEM_ISOTOPIC_ATOM_COUNT>
0

> <PUBCHEM_COMPONENT_COUNT>
1

> <PUBCHEM_CACTVS_TAUTO_COUNT>
4

> <PUBCHEM_CONFORMER_ID>
019819F100000001

> <PUBCHEM_MMFF94_ENERGY>
49.8451

> <PUBCHEM_FEATURE_SELFOVERLAP>
45.772

> <PUBCHEM_SHAPE_FINGERPRINT>
10937287 8 18410851045060244940
11014199 57 17688027935206399188
11036077 51 18338232777575733434
11049842 53 18190486938107532276
11578080 2 11906921909416111919
11582403 64 15907638057950837712
12107183 9 18262785304028388000
12160290 23 18056208100727235965
12166972 35 17405977467543805265
12293681 160 18052794108934432199
12549972 3 17319607594929202337
12788726 201 17902799891955463142
13134695 92 17472702425485383287
13135754 10 17170138059987835834
13140716 1 18339367357405532106
133893 2 18049428258912245861
13941206 138 18410577271213045392
14251757 5 18196098969772881372
14508225 48 17478037719596608639
14790565 3 18337953386042932408
15042514 8 17905051700211805683
15230672 131 18335704919778412590
15439362 3 18048595923893714824
15463212 79 18338790212659472984
15664445 248 17695352478012516734
16991981 162 17685534165309129332
17980427 23 17052154629724809617
20101258 96 17473557218292669640
20600515 1 17254791744663496980
20739085 24 18042682811132207580
21120745 212 17471312002532188724
21796203 349 16757797748580732521
23366157 5 18047759191608088981
283562 15 18340485677264848439
3091708 16 9192971085865917698
469060 322 18265633146186428449
59755656 520 18338507642444710812
77188 2 17329143572712762879
79837 15 18337116760277888762
81228 2 17839744004056687183
9981440 41 18408884027638317201

> <PUBCHEM_SHAPE_MULTIPOLES>
511.14
8.79
6.94
1.35
9.89
8.68
-0.02
-14.62
0.12
-2.98
-0.82
-0.07
-0.13
-0.86

> <PUBCHEM_SHAPE_SELFOVERLAP>
1086.64

> <PUBCHEM_SHAPE_VOLUME>
284.6

> <PUBCHEM_COORDINATE_TYPE>
2
5
10

$$$$
