56775279
  -OEChem-12032416383D

 41 44  0     1  0  0  0  0  0999 V2000
   -6.4468    1.6692    1.3003 F   0  0  0  0  0  0  0  0  0  0  0  0
    0.6123   -2.9180    0.2297 O   0  0  0  0  0  0  0  0  0  0  0  0
   -1.9272   -2.2190   -2.1627 O   0  0  0  0  0  0  0  0  0  0  0  0
    4.4596   -0.5762    1.8946 O   0  0  0  0  0  0  0  0  0  0  0  0
    3.6521    0.9183   -1.1360 O   0  0  0  0  0  0  0  0  0  0  0  0
    2.3664   -0.5757    0.8881 N   0  0  0  0  0  0  0  0  0  0  0  0
   -0.9448   -0.7782   -0.6223 N   0  0  0  0  0  0  0  0  0  0  0  0
    4.2525    1.9506   -1.8466 N   0  0  0  0  0  0  0  0  0  0  0  0
    0.0475   -0.5874    0.4282 C   0  0  1  0  0  0  0  0  0  0  0  0
    0.4132   -1.8686    1.1734 C   0  0  2  0  0  0  0  0  0  0  0  0
    1.4016   -0.1138   -0.1079 C   0  0  0  0  0  0  0  0  0  0  0  0
    1.7553   -1.5283    1.8087 C   0  0  0  0  0  0  0  0  0  0  0  0
   -1.2012   -2.0250   -1.1864 C   0  0  0  0  0  0  0  0  0  0  0  0
   -0.5847   -3.2059   -0.4568 C   0  0  0  0  0  0  0  0  0  0  0  0
   -1.5502    0.4215   -1.1833 C   0  0  0  0  0  0  0  0  0  0  0  0
    3.6802   -0.1597    1.0401 C   0  0  0  0  0  0  0  0  0  0  0  0
   -2.8559    0.7545   -0.5210 C   0  0  0  0  0  0  0  0  0  0  0  0
    4.1787    0.8697    0.1143 C   0  0  0  0  0  0  0  0  0  0  0  0
   -4.0469    0.2334   -1.0267 C   0  0  0  0  0  0  0  0  0  0  0  0
   -2.8781    1.5844    0.5999 C   0  0  0  0  0  0  0  0  0  0  0  0
    5.1228    1.8520    0.2556 C   0  0  0  0  0  0  0  0  0  0  0  0
   -5.2601    0.5425   -0.4118 C   0  0  0  0  0  0  0  0  0  0  0  0
   -4.0913    1.8936    1.2148 C   0  0  0  0  0  0  0  0  0  0  0  0
   -5.2822    1.3726    0.7090 C   0  0  0  0  0  0  0  0  0  0  0  0
    5.1271    2.4936   -0.9950 C   0  0  0  0  0  0  0  0  0  0  0  0
   -0.3350    0.1407    1.1542 H   0  0  0  0  0  0  0  0  0  0  0  0
   -0.3290   -2.1783    1.9172 H   0  0  0  0  0  0  0  0  0  0  0  0
    1.6474   -0.5795   -1.0691 H   0  0  0  0  0  0  0  0  0  0  0  0
    1.4256    0.9754   -0.2071 H   0  0  0  0  0  0  0  0  0  0  0  0
    2.4149   -2.3917    1.9395 H   0  0  0  0  0  0  0  0  0  0  0  0
    1.6287   -1.0159    2.7685 H   0  0  0  0  0  0  0  0  0  0  0  0
   -1.7166    0.2721   -2.2576 H   0  0  0  0  0  0  0  0  0  0  0  0
   -0.8507    1.2624   -1.1053 H   0  0  0  0  0  0  0  0  0  0  0  0
   -1.3267   -3.6117    0.2405 H   0  0  0  0  0  0  0  0  0  0  0  0
   -0.3599   -3.9808   -1.1968 H   0  0  0  0  0  0  0  0  0  0  0  0
   -4.0466   -0.4116   -1.9009 H   0  0  0  0  0  0  0  0  0  0  0  0
   -1.9587    2.0011    1.0020 H   0  0  0  0  0  0  0  0  0  0  0  0
    5.7188    2.0736    1.1284 H   0  0  0  0  0  0  0  0  0  0  0  0
   -6.1877    0.1376   -0.8056 H   0  0  0  0  0  0  0  0  0  0  0  0
   -4.1091    2.5404    2.0869 H   0  0  0  0  0  0  0  0  0  0  0  0
    5.7264    3.3301   -1.3230 H   0  0  0  0  0  0  0  0  0  0  0  0
  1 24  1  0  0  0  0
  2 10  1  0  0  0  0
  2 14  1  0  0  0  0
  3 13  2  0  0  0  0
  4 16  2  0  0  0  0
  5  8  1  0  0  0  0
  5 18  1  0  0  0  0
  6 11  1  0  0  0  0
  6 12  1  0  0  0  0
  6 16  1  0  0  0  0
  7  9  1  0  0  0  0
  7 13  1  0  0  0  0
  7 15  1  0  0  0  0
  8 25  2  0  0  0  0
  9 10  1  0  0  0  0
  9 11  1  0  0  0  0
  9 26  1  0  0  0  0
 10 12  1  0  0  0  0
 10 27  1  0  0  0  0
 11 28  1  0  0  0  0
 11 29  1  0  0  0  0
 12 30  1  0  0  0  0
 12 31  1  0  0  0  0
 13 14  1  0  0  0  0
 14 34  1  0  0  0  0
 14 35  1  0  0  0  0
 15 17  1  0  0  0  0
 15 32  1  0  0  0  0
 15 33  1  0  0  0  0
 16 18  1  0  0  0  0
 17 19  2  0  0  0  0
 17 20  1  0  0  0  0
 18 21  2  0  0  0  0
 19 22  1  0  0  0  0
 19 36  1  0  0  0  0
 20 23  2  0  0  0  0
 20 37  1  0  0  0  0
 21 25  1  0  0  0  0
 21 38  1  0  0  0  0
 22 24  2  0  0  0  0
 22 39  1  0  0  0  0
 23 24  1  0  0  0  0
 23 40  1  0  0  0  0
 25 41  1  0  0  0  0
M  END
> <PUBCHEM_COMPOUND_CID>
56775279

> <PUBCHEM_CONFORMER_RMSD>
0.8

> <PUBCHEM_CONFORMER_DIVERSEORDER>
1
57
64
59
80
77
58
79
49
60
47
81
62
34
24
7
22
42
30
56
40
51
74
69
15
27
6
84
53
82
28
83
19
46
87
85
23
13
61
11
20
45
5
76
10
25
29
72
44
9
54
31
48
16
14
70
38
8
17
35
50
71
68
67
33
65
63
78
55
2
26
52
37
12
36
4
66
21
43
86
41
75
18
3
73
39
32

> <PUBCHEM_MMFF94_PARTIAL_CHARGES>
31
1 -0.19
10 0.28
11 0.3
12 0.3
13 0.57
14 0.34
15 0.44
16 0.71
17 -0.14
18 0.05
19 -0.15
2 -0.56
20 -0.15
21 -0.15
22 -0.15
23 -0.15
24 0.19
25 0.14
3 -0.57
36 0.15
37 0.15
38 0.15
39 0.15
4 -0.57
40 0.15
41 0.15
5 -0.02
6 -0.66
7 -0.66
8 -0.41
9 0.3

> <PUBCHEM_EFFECTIVE_ROTOR_COUNT>
5.2

> <PUBCHEM_PHARMACOPHORE_FEATURES>
8
1 2 acceptor
1 3 acceptor
1 4 acceptor
1 8 acceptor
5 5 8 18 21 25 rings
5 6 9 10 11 12 rings
6 17 19 20 22 23 24 rings
6 2 7 9 10 13 14 rings

> <PUBCHEM_HEAVY_ATOM_COUNT>
25

> <PUBCHEM_ATOM_DEF_STEREO_COUNT>
2

> <PUBCHEM_ATOM_UDEF_STEREO_COUNT>
0

> <PUBCHEM_BOND_DEF_STEREO_COUNT>
0

> <PUBCHEM_BOND_UDEF_STEREO_COUNT>
0

> <PUBCHEM_ISOTOPIC_ATOM_COUNT>
0

> <PUBCHEM_COMPONENT_COUNT>
1

> <PUBCHEM_CACTVS_TAUTO_COUNT>
2

> <PUBCHEM_CONFORMER_ID>
0362526F00000001

> <PUBCHEM_MMFF94_ENERGY>
59.4564

> <PUBCHEM_FEATURE_SELFOVERLAP>
40.799

> <PUBCHEM_SHAPE_FINGERPRINT>
10794284 68 17321304476051358963
11045977 3 16298384621801297777
11049842 53 18130209485769957186
11823591 26 18343015575899875677
12390115 104 18342184405170195411
12403259 118 17970329447881040449
12760667 363 10519715483256624940
12788726 201 18123179375345349063
128238 76 18335423530057482435
12895837 130 18054794155114296212
13583140 156 16806988958156851043
13782708 43 14491020559769766080
13828863 39 18187374258869431201
14251757 17 15123514661743880656
14251764 75 17751656578801561524
14341114 328 18409169887934879369
14429115 67 9439409021130730452
1454969 45 18412260671408579255
14790565 3 18413389830457686233
14840074 17 18260553329130165541
14955137 171 17827066308893253930
15021287 119 18043509643776263842
15163728 17 18272096010477074246
15183329 4 13542470838968349609
15342168 16 18113617906449733884
15534591 1 18337105765098378806
15575132 122 18411703141277494445
17349148 13 8718547250477396737
18222031 100 11386373616464700929
18785283 64 18193555571359778322
19319366 153 18260821601208012178
200 152 11240004468475615484
204376 136 18408039602613076659
20567600 234 16660657279657615421
20739085 24 17977372842396935138
21033650 10 17203618081494445776
21250096 35 9295281750884414689
21365058 113 17460886086181746646
21458453 9 15937843879928351353
21756936 100 18336549429621063336
221357 26 13398629412208226441
22620623 9 17273969327748778519
23558518 356 17685501244294932756
25147074 1 18263343919790465410
2637199 183 18059855047694767851
3459 110 16298672809774923312
3472631 163 18342177821064861596
3729539 64 14333142835872725381
38570 142 18187380839318387804
4340502 62 17385448708883792665
469060 322 16227163902241423647
474 4 18113892775993570456
5104073 3 17605260982403276544
59444896 2 16157685805648754735
59682541 52 13254515302148549641
6034566 193 17315365966694537508
6438754 60 12391517446963252853
7808743 9 18272929440475161057
960060 61 12103557598159389200

> <PUBCHEM_SHAPE_MULTIPOLES>
468.79
12.45
3.04
1.69
2.29
1.57
-0.09
-12.35
1.53
-0.62
-0.42
-0.33
0.23
-3.1

> <PUBCHEM_SHAPE_SELFOVERLAP>
1023.125

> <PUBCHEM_SHAPE_VOLUME>
255.6

> <PUBCHEM_COORDINATE_TYPE>
2
5
10

$$$$
