44716532
  -OEChem-12032416163D

 56 58  0     1  0  0  0  0  0999 V2000
   -2.6208    0.4624   -0.5403 O   0  0  0  0  0  0  0  0  0  0  0  0
   -4.4904    0.7215    1.7992 O   0  0  0  0  0  0  0  0  0  0  0  0
   -5.2161    1.9115   -1.5375 O   0  0  0  0  0  0  0  0  0  0  0  0
   -2.2023   -2.4786   -1.3582 O   0  0  0  0  0  0  0  0  0  0  0  0
   -0.3249    0.6043    1.3209 O   0  0  0  0  0  0  0  0  0  0  0  0
    4.8508    0.6308    1.2626 O   0  0  0  0  0  0  0  0  0  0  0  0
    5.4585    1.7231   -0.7979 O   0  0  0  0  0  0  0  0  0  0  0  0
   -0.7799    2.5284    0.1066 N   0  0  0  0  0  0  0  0  0  0  0  0
   -1.4543   -2.9944    0.7807 N   0  0  0  0  0  0  0  0  0  0  0  0
    2.0368   -3.9111   -0.1371 N   0  0  0  0  0  0  0  0  0  0  0  0
   -4.7790    0.5879    0.4143 C   0  0  1  0  0  0  0  0  0  0  0  0
   -4.5136    1.8991   -0.2966 C   0  0  1  0  0  0  0  0  0  0  0  0
   -3.7792   -0.3419   -0.2619 C   0  0  2  0  0  0  0  0  0  0  0  0
   -3.0152    1.8479   -0.5934 C   0  0  1  0  0  0  0  0  0  0  0  0
   -3.3645   -1.5546    0.5511 C   0  0  0  0  0  0  0  0  0  0  0  0
   -2.1754    2.6079    0.4237 C   0  0  0  0  0  0  0  0  0  0  0  0
   -2.2933   -2.3804   -0.1375 C   0  0  0  0  0  0  0  0  0  0  0  0
    0.0470    1.5171    0.5882 C   0  0  0  0  0  0  0  0  0  0  0  0
   -0.3488   -3.8417    0.3962 C   0  0  0  0  0  0  0  0  0  0  0  0
    0.9294   -3.0347    0.2224 C   0  0  0  0  0  0  0  0  0  0  0  0
    1.4761    1.5908    0.1890 C   0  0  0  0  0  0  0  0  0  0  0  0
    2.4551    1.0257    1.0099 C   0  0  0  0  0  0  0  0  0  0  0  0
    1.8308    2.2283   -1.0129 C   0  0  0  0  0  0  0  0  0  0  0  0
    3.7684    1.1183    0.5971 C   0  0  0  0  0  0  0  0  0  0  0  0
    4.1154    1.7420   -0.5794 C   0  0  0  0  0  0  0  0  0  0  0  0
    3.1683    2.3078   -1.4079 C   0  0  0  0  0  0  0  0  0  0  0  0
    3.3189   -3.2818    0.1857 C   0  0  0  0  0  0  0  0  0  0  0  0
    1.9840   -4.2530   -1.5598 C   0  0  0  0  0  0  0  0  0  0  0  0
    5.9181    1.0173    0.3728 C   0  0  0  0  0  0  0  0  0  0  0  0
   -5.8035    0.2191    0.3025 H   0  0  0  0  0  0  0  0  0  0  0  0
   -4.8109    2.7831    0.2760 H   0  0  0  0  0  0  0  0  0  0  0  0
   -4.1726   -0.6600   -1.2361 H   0  0  0  0  0  0  0  0  0  0  0  0
   -2.7895    2.2088   -1.6041 H   0  0  0  0  0  0  0  0  0  0  0  0
   -4.2257   -2.2045    0.7409 H   0  0  0  0  0  0  0  0  0  0  0  0
   -2.9683   -1.2281    1.5204 H   0  0  0  0  0  0  0  0  0  0  0  0
   -2.3204    2.2085    1.4330 H   0  0  0  0  0  0  0  0  0  0  0  0
   -2.4496    3.6679    0.4313 H   0  0  0  0  0  0  0  0  0  0  0  0
   -5.1151    1.3704    2.1656 H   0  0  0  0  0  0  0  0  0  0  0  0
   -5.0050    2.7498   -1.9829 H   0  0  0  0  0  0  0  0  0  0  0  0
   -0.3969    3.2860   -0.4482 H   0  0  0  0  0  0  0  0  0  0  0  0
   -1.6117   -2.8561    1.7746 H   0  0  0  0  0  0  0  0  0  0  0  0
   -0.2300   -4.5900    1.1879 H   0  0  0  0  0  0  0  0  0  0  0  0
   -0.6306   -4.3649   -0.5228 H   0  0  0  0  0  0  0  0  0  0  0  0
    0.7936   -2.2238   -0.5058 H   0  0  0  0  0  0  0  0  0  0  0  0
    1.1331   -2.5425    1.1837 H   0  0  0  0  0  0  0  0  0  0  0  0
    2.2057    0.5311    1.9427 H   0  0  0  0  0  0  0  0  0  0  0  0
    1.0861    2.6459   -1.6847 H   0  0  0  0  0  0  0  0  0  0  0  0
    3.4458    2.7919   -2.3374 H   0  0  0  0  0  0  0  0  0  0  0  0
    3.3912   -3.0799    1.2603 H   0  0  0  0  0  0  0  0  0  0  0  0
    3.4627   -2.3384   -0.3538 H   0  0  0  0  0  0  0  0  0  0  0  0
    4.1503   -3.9514   -0.0615 H   0  0  0  0  0  0  0  0  0  0  0  0
    1.0744   -4.8067   -1.8113 H   0  0  0  0  0  0  0  0  0  0  0  0
    2.8194   -4.9124   -1.8226 H   0  0  0  0  0  0  0  0  0  0  0  0
    2.0387   -3.3661   -2.2019 H   0  0  0  0  0  0  0  0  0  0  0  0
    6.4510    0.1149    0.0518 H   0  0  0  0  0  0  0  0  0  0  0  0
    6.6153    1.6619    0.9202 H   0  0  0  0  0  0  0  0  0  0  0  0
  1 13  1  0  0  0  0
  1 14  1  0  0  0  0
  2 11  1  0  0  0  0
  2 38  1  0  0  0  0
  3 12  1  0  0  0  0
  3 39  1  0  0  0  0
  4 17  2  0  0  0  0
  5 18  2  0  0  0  0
  6 24  1  0  0  0  0
  6 29  1  0  0  0  0
  7 25  1  0  0  0  0
  7 29  1  0  0  0  0
  8 16  1  0  0  0  0
  8 18  1  0  0  0  0
  8 40  1  0  0  0  0
  9 17  1  0  0  0  0
  9 19  1  0  0  0  0
  9 41  1  0  0  0  0
 10 20  1  0  0  0  0
 10 27  1  0  0  0  0
 10 28  1  0  0  0  0
 11 12  1  0  0  0  0
 11 13  1  0  0  0  0
 11 30  1  0  0  0  0
 12 14  1  0  0  0  0
 12 31  1  0  0  0  0
 13 15  1  0  0  0  0
 13 32  1  0  0  0  0
 14 16  1  0  0  0  0
 14 33  1  0  0  0  0
 15 17  1  0  0  0  0
 15 34  1  0  0  0  0
 15 35  1  0  0  0  0
 16 36  1  0  0  0  0
 16 37  1  0  0  0  0
 18 21  1  0  0  0  0
 19 20  1  0  0  0  0
 19 42  1  0  0  0  0
 19 43  1  0  0  0  0
 20 44  1  0  0  0  0
 20 45  1  0  0  0  0
 21 22  2  0  0  0  0
 21 23  1  0  0  0  0
 22 24  1  0  0  0  0
 22 46  1  0  0  0  0
 23 26  2  0  0  0  0
 23 47  1  0  0  0  0
 24 25  2  0  0  0  0
 25 26  1  0  0  0  0
 26 48  1  0  0  0  0
 27 49  1  0  0  0  0
 27 50  1  0  0  0  0
 27 51  1  0  0  0  0
 28 52  1  0  0  0  0
 28 53  1  0  0  0  0
 28 54  1  0  0  0  0
 29 55  1  0  0  0  0
 29 56  1  0  0  0  0
M  END
> <PUBCHEM_COMPOUND_CID>
44716532

> <PUBCHEM_CONFORMER_RMSD>
1.2

> <PUBCHEM_CONFORMER_DIVERSEORDER>
1
63
65
8
113
159
105
62
72
153
119
84
93
146
169
7
156
35
53
102
90
180
50
13
158
88
155
47
125
30
172
48
160
91
33
176
151
10
132
55
80
147
109
18
154
171
99
117
177
148
110
54
185
60
31
36
121
179
183
174
136
120
23
69
134
163
184
107
161
61
57
143
123
106
166
140
131
187
101
100
170
141
97
89
39
87
64
128
108
145
130
168
103
98
15
58
86
78
152
149
81
41
71
111
129
20
25
17
82
96
182
38
122
133
173
175
49
24
181
77
104
115
165
52
164
142
83
67
138
178
2
44
75
126
29
135
137
46
76
139
186
21
118
26
73
27
51
127
56
37
162
124
5
116
74
4
94
42
85
45
112
144
66
40
92
12
79
28
95
32
68
150
34
22
70
9
19
59
167
43
14
114
3
157
16
6
11

> <PUBCHEM_MMFF94_PARTIAL_CHARGES>
36
1 -0.56
10 -0.81
11 0.28
12 0.28
13 0.28
14 0.28
15 0.06
16 0.3
17 0.57
18 0.54
19 0.3
2 -0.68
20 0.27
21 0.09
22 -0.15
23 -0.15
24 0.08
25 0.08
26 -0.15
27 0.27
28 0.27
29 0.56
3 -0.68
38 0.4
39 0.4
4 -0.57
40 0.37
41 0.37
46 0.15
47 0.15
48 0.15
5 -0.57
6 -0.36
7 -0.36
8 -0.73
9 -0.73

> <PUBCHEM_EFFECTIVE_ROTOR_COUNT>
11.6

> <PUBCHEM_PHARMACOPHORE_FEATURES>
15
1 1 acceptor
1 10 cation
1 2 acceptor
1 2 donor
1 3 acceptor
1 3 donor
1 4 acceptor
1 5 acceptor
1 6 acceptor
1 7 acceptor
1 8 donor
1 9 donor
5 1 11 12 13 14 rings
5 6 7 24 25 29 rings
6 21 22 23 24 25 26 rings

> <PUBCHEM_HEAVY_ATOM_COUNT>
29

> <PUBCHEM_ATOM_DEF_STEREO_COUNT>
3

> <PUBCHEM_ATOM_UDEF_STEREO_COUNT>
1

> <PUBCHEM_BOND_DEF_STEREO_COUNT>
0

> <PUBCHEM_BOND_UDEF_STEREO_COUNT>
0

> <PUBCHEM_ISOTOPIC_ATOM_COUNT>
0

> <PUBCHEM_COMPONENT_COUNT>
1

> <PUBCHEM_CACTVS_TAUTO_COUNT>
4

> <PUBCHEM_CONFORMER_ID>
02AA51F400000001

> <PUBCHEM_MMFF94_ENERGY>
65.1524

> <PUBCHEM_FEATURE_SELFOVERLAP>
76.284

> <PUBCHEM_SHAPE_FINGERPRINT>
10616163 171 18335983180789925899
11200772 71 17828784055583499772
11513181 2 18202278078855030342
12422481 6 18193246669386112858
13726171 33 17692005903498255908
14117953 113 18192419789349755478
14251757 5 17977395146288125292
14659021 117 17552338287474706622
14713325 29 18117284872244736179
14725015 67 17979351194127086378
15297060 5 18272653472126695978
15927050 60 18413387627603550847
16067689 134 16613641814314532897
16719943 64 18337389452336648818
17093844 170 18411139130608724758
18681886 176 18262798588167815376
20511986 3 17750216149833698080
20764821 26 18410007728384987782
21344244 246 18338502077042678175
23559900 14 18339357457727434944
238918 7 18201722903277295230
3027735 51 18269551814059714751
3298306 158 18413107272869200462
338550 245 18407479960079775054
4280585 95 17759232999684547122
463206 1 18341892996034252090
5085150 59 18341886399560883346
508706 21 18267313208137714934
5265222 85 18192724551307147716
532947 4 18265328418050639071
59755656 215 18411137987994553836
602551 16 18268989954896020616
6433294 58 18268150855730408958

> <PUBCHEM_SHAPE_MULTIPOLES>
540.78
11.13
5.54
1.27
2.43
7.58
0.12
-7
0.17
2.13
1.26
-0.04
-0.07
0.29

> <PUBCHEM_SHAPE_SELFOVERLAP>
1135.862

> <PUBCHEM_SHAPE_VOLUME>
305.9

> <PUBCHEM_COORDINATE_TYPE>
2
5
10

$$$$
