45783955
  -OEChem-12032416293D

 40 43  0     1  0  0  0  0  0999 V2000
   -2.4754    1.4637   -1.0750 O   0  0  0  0  0  0  0  0  0  0  0  0
    3.1063    0.7169    2.3447 O   0  0  0  0  0  0  0  0  0  0  0  0
    1.7681    1.3281    0.5477 N   0  0  0  0  0  0  0  0  0  0  0  0
   -1.3650   -0.0751    0.1644 N   0  0  0  0  0  0  0  0  0  0  0  0
    4.8944   -0.8460   -1.5731 N   0  0  0  0  0  0  0  0  0  0  0  0
   -0.0800    1.8879   -0.8433 C   0  0  1  0  0  0  0  0  0  0  0  0
    0.1185    2.9823    0.2169 C   0  0  0  0  0  0  0  0  0  0  0  0
    1.2806    1.1769   -0.8243 C   0  0  0  0  0  0  0  0  0  0  0  0
    0.9836    2.3130    1.2762 C   0  0  0  0  0  0  0  0  0  0  0  0
   -1.2979    1.0312   -0.5431 C   0  0  0  0  0  0  0  0  0  0  0  0
    2.7782    0.6070    1.1651 C   0  0  0  0  0  0  0  0  0  0  0  0
   -2.6957   -0.4108    0.1011 C   0  0  0  0  0  0  0  0  0  0  0  0
   -3.3787    0.5289   -0.6568 C   0  0  0  0  0  0  0  0  0  0  0  0
    3.5057   -0.3782    0.3499 C   0  0  0  0  0  0  0  0  0  0  0  0
   -3.4088   -1.4857    0.6510 C   0  0  0  0  0  0  0  0  0  0  0  0
   -4.7420    0.4927   -0.9222 C   0  0  0  0  0  0  0  0  0  0  0  0
   -4.7876   -1.5567    0.4048 C   0  0  0  0  0  0  0  0  0  0  0  0
   -5.4386   -0.5860   -0.3665 C   0  0  0  0  0  0  0  0  0  0  0  0
    3.5135   -1.7258    0.6924 C   0  0  0  0  0  0  0  0  0  0  0  0
    4.2055    0.0071   -0.7822 C   0  0  0  0  0  0  0  0  0  0  0  0
   -5.5750   -2.6897    0.9769 C   0  0  0  0  0  0  0  0  0  0  0  0
    4.2110   -2.6340   -0.0964 C   0  0  0  0  0  0  0  0  0  0  0  0
    4.8791   -2.1477   -1.2085 C   0  0  0  0  0  0  0  0  0  0  0  0
   -0.2422    2.3377   -1.8308 H   0  0  0  0  0  0  0  0  0  0  0  0
    0.6742    3.8179   -0.2274 H   0  0  0  0  0  0  0  0  0  0  0  0
   -0.8126    3.3797    0.6327 H   0  0  0  0  0  0  0  0  0  0  0  0
    1.2252    0.1226   -1.1108 H   0  0  0  0  0  0  0  0  0  0  0  0
    1.9859    1.6971   -1.4813 H   0  0  0  0  0  0  0  0  0  0  0  0
    1.6391    3.0148    1.8005 H   0  0  0  0  0  0  0  0  0  0  0  0
    0.3772    1.7797    2.0167 H   0  0  0  0  0  0  0  0  0  0  0  0
   -2.9018   -2.2379    1.2471 H   0  0  0  0  0  0  0  0  0  0  0  0
   -5.2357    1.2483   -1.5204 H   0  0  0  0  0  0  0  0  0  0  0  0
   -6.5091   -0.6618   -0.5464 H   0  0  0  0  0  0  0  0  0  0  0  0
    2.9786   -2.0795    1.5697 H   0  0  0  0  0  0  0  0  0  0  0  0
    4.2578    1.0457   -1.0939 H   0  0  0  0  0  0  0  0  0  0  0  0
   -6.5885   -2.3697    1.2421 H   0  0  0  0  0  0  0  0  0  0  0  0
   -5.1113   -3.0739    1.8918 H   0  0  0  0  0  0  0  0  0  0  0  0
   -5.6416   -3.5050    0.2497 H   0  0  0  0  0  0  0  0  0  0  0  0
    4.2305   -3.6891    0.1512 H   0  0  0  0  0  0  0  0  0  0  0  0
    5.4377   -2.8151   -1.8565 H   0  0  0  0  0  0  0  0  0  0  0  0
  1 10  1  0  0  0  0
  1 13  1  0  0  0  0
  2 11  2  0  0  0  0
  3  8  1  0  0  0  0
  3  9  1  0  0  0  0
  3 11  1  0  0  0  0
  4 10  2  0  0  0  0
  4 12  1  0  0  0  0
  5 20  1  0  0  0  0
  5 23  2  0  0  0  0
  6  7  1  0  0  0  0
  6  8  1  0  0  0  0
  6 10  1  0  0  0  0
  6 24  1  0  0  0  0
  7  9  1  0  0  0  0
  7 25  1  0  0  0  0
  7 26  1  0  0  0  0
  8 27  1  0  0  0  0
  8 28  1  0  0  0  0
  9 29  1  0  0  0  0
  9 30  1  0  0  0  0
 11 14  1  0  0  0  0
 12 13  2  0  0  0  0
 12 15  1  0  0  0  0
 13 16  1  0  0  0  0
 14 19  1  0  0  0  0
 14 20  2  0  0  0  0
 15 17  2  0  0  0  0
 15 31  1  0  0  0  0
 16 18  2  0  0  0  0
 16 32  1  0  0  0  0
 17 18  1  0  0  0  0
 17 21  1  0  0  0  0
 18 33  1  0  0  0  0
 19 22  2  0  0  0  0
 19 34  1  0  0  0  0
 20 35  1  0  0  0  0
 21 36  1  0  0  0  0
 21 37  1  0  0  0  0
 21 38  1  0  0  0  0
 22 23  1  0  0  0  0
 22 39  1  0  0  0  0
 23 40  1  0  0  0  0
M  END
> <PUBCHEM_COMPOUND_CID>
45783955

> <PUBCHEM_CONFORMER_RMSD>
0.8

> <PUBCHEM_CONFORMER_DIVERSEORDER>
1
50
44
29
25
28
38
17
31
45
51
48
19
15
34
36
27
12
18
23
47
30
2
43
39
16
22
14
40
20
33
41
9
3
24
46
35
49
26
8
21
11
37
32
4
42
10
5
13
6
7

> <PUBCHEM_MMFF94_PARTIAL_CHARGES>
29
1 -0.28
10 0.3
11 0.54
12 0.23
13 0.14
14 0.09
15 -0.15
16 -0.15
17 -0.14
18 -0.15
19 -0.15
2 -0.57
20 0.16
21 0.14
22 -0.15
23 0.16
3 -0.66
31 0.15
32 0.15
33 0.15
34 0.15
35 0.15
39 0.15
4 -0.57
40 0.15
5 -0.62
6 0.18
8 0.3
9 0.3

> <PUBCHEM_EFFECTIVE_ROTOR_COUNT>
4

> <PUBCHEM_PHARMACOPHORE_FEATURES>
6
1 2 acceptor
1 5 acceptor
5 1 4 10 12 13 rings
5 3 6 7 8 9 rings
6 12 13 15 16 17 18 rings
6 5 14 19 20 22 23 rings

> <PUBCHEM_HEAVY_ATOM_COUNT>
23

> <PUBCHEM_ATOM_DEF_STEREO_COUNT>
1

> <PUBCHEM_ATOM_UDEF_STEREO_COUNT>
0

> <PUBCHEM_BOND_DEF_STEREO_COUNT>
0

> <PUBCHEM_BOND_UDEF_STEREO_COUNT>
0

> <PUBCHEM_ISOTOPIC_ATOM_COUNT>
0

> <PUBCHEM_COMPONENT_COUNT>
1

> <PUBCHEM_CACTVS_TAUTO_COUNT>
1

> <PUBCHEM_CONFORMER_ID>
02BA9B9300000001

> <PUBCHEM_MMFF94_ENERGY>
56.8451

> <PUBCHEM_FEATURE_SELFOVERLAP>
30.567

> <PUBCHEM_SHAPE_FINGERPRINT>
10763959 59 9871754619918405882
10928967 22 18342454816132524870
11796584 16 18113888356435468437
12422481 6 13829864482349912251
12596602 18 15410315733040940126
12633257 1 16200425871218671814
12760667 363 18199187291491660766
12892183 10 17917704738390441585
13103583 49 17774458100180981547
13402501 40 18411421695927523062
13533116 47 18200315567005853291
13544653 18 18343861104362296148
13583140 156 16771526633417912153
13631057 29 18338805494923167390
13911852 28 18272368629241795967
13911882 115 18412258471926297008
13914758 101 17203325560568893377
13955234 65 18056198205165531288
13965767 371 12175627235322486272
14251740 57 18267025140517982403
14251764 30 17631746963080144262
14252887 29 18272640277654963344
14420673 8 18338804403658641083
14790565 3 17398666805924770189
14866123 147 18053102813998420625
15342816 4 17531232972690430024
15352361 1 18409166588798622055
15537594 2 17603867776210215425
15664445 248 17676490600887935796
17349148 13 16845572045678735125
17804303 29 18333726944860813645
17909252 39 18268426841997956914
1813 80 17967527978084274085
193927 3 18342178855761115189
20403669 9 18341612572992447110
20567600 254 9223232914432561322
20645477 70 18115586096619715213
21279426 13 18336535020449306493
21682296 61 18272655636727273007
21859007 373 14546804282363223641
2215653 11 18409720751913360551
22950370 63 18410019805568889964
23559900 14 18261108612767027125
239999 70 18260824960263145632
2838139 119 8718533983523931434
3004659 81 17967812709252609326
3089732 80 18408889550898135691
329604 57 18337397050381682894
3421961 26 18341891934982411072
345986 75 17346597426650788114
3737641 26 17129879218530471622
38570 142 14259919889112364594
437795 139 17836107580435207038
44317340 157 11314296231956003145
46194498 28 17677618729333639581
465052 167 18131074826921016430
5309563 4 18342458114656488295
59755656 215 18187633671321549943
6823239 73 18408599279711832690
7064713 232 12247684880873583323
7808743 9 10663233684174494314
8217 86 18341343206288114774
8863177 126 18340207496095998271
960060 61 16877659063009565706
9709674 26 18042966674099984251

> <PUBCHEM_SHAPE_MULTIPOLES>
446.65
12.83
2.99
1.39
5.65
0.16
0.32
11.27
-1.51
-0.55
0.38
-1.17
-0.18
2.21

> <PUBCHEM_SHAPE_SELFOVERLAP>
986.048

> <PUBCHEM_SHAPE_VOLUME>
240.6

> <PUBCHEM_COORDINATE_TYPE>
2
5
10

$$$$
