11939784
  -OEChem-12032416263D

 57 60  0     1  0  0  0  0  0999 V2000
    3.2927   -2.0849    1.7373 O   0  0  0  0  0  0  0  0  0  0  0  0
    1.4957    0.4623    1.8771 O   0  0  0  0  0  0  0  0  0  0  0  0
    6.2971    0.5225   -0.0475 O   0  0  0  0  0  0  0  0  0  0  0  0
    6.6274    2.3852   -1.9626 O   0  0  0  0  0  0  0  0  0  0  0  0
    4.1194    1.2143    0.3901 N   0  0  0  0  0  0  0  0  0  0  0  0
    0.6498   -2.6924    0.2460 N   0  0  0  0  0  0  0  0  0  0  0  0
   -1.3685   -1.5757   -0.1850 N   0  0  0  0  0  0  0  0  0  0  0  0
   -0.6600   -3.4250   -1.5580 N   0  0  0  0  0  0  0  0  0  0  0  0
   -6.0492    2.6431    0.5058 N   0  0  0  0  0  0  0  0  0  0  0  0
    1.6458   -0.5839    0.9027 C   0  0  1  0  0  0  0  0  0  0  0  0
    3.1151   -0.9563    0.8652 C   0  0  1  0  0  0  0  0  0  0  0  0
    0.9575   -1.8426    1.3754 C   0  0  2  0  0  0  0  0  0  0  0  0
    3.8170    0.2585    1.4279 C   0  0  2  0  0  0  0  0  0  0  0  0
    2.0151   -2.4925    2.2487 C   0  0  0  0  0  0  0  0  0  0  0  0
    2.7873    0.8079    2.3990 C   0  0  0  0  0  0  0  0  0  0  0  0
    5.3427    1.2644   -0.2632 C   0  0  0  0  0  0  0  0  0  0  0  0
   -0.4936   -2.5604   -0.5220 C   0  0  0  0  0  0  0  0  0  0  0  0
    5.3791    2.3635   -1.3036 C   0  0  0  0  0  0  0  0  0  0  0  0
   -2.4722   -1.4755   -0.9545 C   0  0  0  0  0  0  0  0  0  0  0  0
   -1.7855   -3.2681   -2.2854 C   0  0  0  0  0  0  0  0  0  0  0  0
   -2.7361   -2.3016   -2.0280 C   0  0  0  0  0  0  0  0  0  0  0  0
   -3.3867   -0.4235   -0.5803 C   0  0  0  0  0  0  0  0  0  0  0  0
    6.6899    3.4116   -2.9487 C   0  0  0  0  0  0  0  0  0  0  0  0
   -4.7553   -0.5662   -0.8192 C   0  0  0  0  0  0  0  0  0  0  0  0
   -2.9060    0.7420    0.0206 C   0  0  0  0  0  0  0  0  0  0  0  0
   -5.1556    1.6144    0.1408 C   0  0  0  0  0  0  0  0  0  0  0  0
   -5.6387    0.4516   -0.4591 C   0  0  0  0  0  0  0  0  0  0  0  0
   -3.7893    1.7596    0.3808 C   0  0  0  0  0  0  0  0  0  0  0  0
   -7.2718    2.8532   -0.2435 C   0  0  0  0  0  0  0  0  0  0  0  0
   -5.7629    3.4943    1.6434 C   0  0  0  0  0  0  0  0  0  0  0  0
    1.2834   -0.1911   -0.0527 H   0  0  0  0  0  0  0  0  0  0  0  0
    3.4561   -1.2549   -0.1314 H   0  0  0  0  0  0  0  0  0  0  0  0
    0.0602   -1.6561    1.9766 H   0  0  0  0  0  0  0  0  0  0  0  0
    4.7449    0.0063    1.9524 H   0  0  0  0  0  0  0  0  0  0  0  0
    1.9654   -3.5856    2.2690 H   0  0  0  0  0  0  0  0  0  0  0  0
    1.9485   -2.1275    3.2796 H   0  0  0  0  0  0  0  0  0  0  0  0
    2.8444    1.8918    2.5385 H   0  0  0  0  0  0  0  0  0  0  0  0
    2.8796    0.3287    3.3799 H   0  0  0  0  0  0  0  0  0  0  0  0
    3.3801    1.8452    0.0927 H   0  0  0  0  0  0  0  0  0  0  0  0
    1.3196   -3.3951   -0.0459 H   0  0  0  0  0  0  0  0  0  0  0  0
    5.2051    3.3221   -0.8009 H   0  0  0  0  0  0  0  0  0  0  0  0
    4.5775    2.1814   -2.0290 H   0  0  0  0  0  0  0  0  0  0  0  0
   -1.9027   -3.9605   -3.1123 H   0  0  0  0  0  0  0  0  0  0  0  0
   -3.6054   -2.2165   -2.6672 H   0  0  0  0  0  0  0  0  0  0  0  0
    6.5577    4.3943   -2.4859 H   0  0  0  0  0  0  0  0  0  0  0  0
    5.9278    3.2497   -3.7171 H   0  0  0  0  0  0  0  0  0  0  0  0
    7.6758    3.3756   -3.4196 H   0  0  0  0  0  0  0  0  0  0  0  0
   -5.1773   -1.4661   -1.2587 H   0  0  0  0  0  0  0  0  0  0  0  0
   -1.8455    0.8927    0.2094 H   0  0  0  0  0  0  0  0  0  0  0  0
   -6.6985    0.3000   -0.6434 H   0  0  0  0  0  0  0  0  0  0  0  0
   -3.3798    2.6583    0.8333 H   0  0  0  0  0  0  0  0  0  0  0  0
   -7.1017    2.7654   -1.3226 H   0  0  0  0  0  0  0  0  0  0  0  0
   -7.6737    3.8577   -0.0695 H   0  0  0  0  0  0  0  0  0  0  0  0
   -8.0405    2.1341    0.0584 H   0  0  0  0  0  0  0  0  0  0  0  0
   -5.0388    4.2706    1.3746 H   0  0  0  0  0  0  0  0  0  0  0  0
   -5.3725    2.9164    2.4887 H   0  0  0  0  0  0  0  0  0  0  0  0
   -6.6690    3.9982    1.9981 H   0  0  0  0  0  0  0  0  0  0  0  0
  1 11  1  0  0  0  0
  1 14  1  0  0  0  0
  2 10  1  0  0  0  0
  2 15  1  0  0  0  0
  3 16  2  0  0  0  0
  4 18  1  0  0  0  0
  4 23  1  0  0  0  0
  5 13  1  0  0  0  0
  5 16  1  0  0  0  0
  5 39  1  0  0  0  0
  6 12  1  0  0  0  0
  6 17  1  0  0  0  0
  6 40  1  0  0  0  0
  7 17  1  0  0  0  0
  7 19  2  0  0  0  0
  8 17  2  0  0  0  0
  8 20  1  0  0  0  0
  9 26  1  0  0  0  0
  9 29  1  0  0  0  0
  9 30  1  0  0  0  0
 10 11  1  0  0  0  0
 10 12  1  0  0  0  0
 10 31  1  0  0  0  0
 11 13  1  0  0  0  0
 11 32  1  0  0  0  0
 12 14  1  0  0  0  0
 12 33  1  0  0  0  0
 13 15  1  0  0  0  0
 13 34  1  0  0  0  0
 14 35  1  0  0  0  0
 14 36  1  0  0  0  0
 15 37  1  0  0  0  0
 15 38  1  0  0  0  0
 16 18  1  0  0  0  0
 18 41  1  0  0  0  0
 18 42  1  0  0  0  0
 19 21  1  0  0  0  0
 19 22  1  0  0  0  0
 20 21  2  0  0  0  0
 20 43  1  0  0  0  0
 21 44  1  0  0  0  0
 22 24  2  0  0  0  0
 22 25  1  0  0  0  0
 23 45  1  0  0  0  0
 23 46  1  0  0  0  0
 23 47  1  0  0  0  0
 24 27  1  0  0  0  0
 24 48  1  0  0  0  0
 25 28  2  0  0  0  0
 25 49  1  0  0  0  0
 26 27  2  0  0  0  0
 26 28  1  0  0  0  0
 27 50  1  0  0  0  0
 28 51  1  0  0  0  0
 29 52  1  0  0  0  0
 29 53  1  0  0  0  0
 29 54  1  0  0  0  0
 30 55  1  0  0  0  0
 30 56  1  0  0  0  0
 30 57  1  0  0  0  0
M  END
> <PUBCHEM_COMPOUND_CID>
11939784

> <PUBCHEM_CONFORMER_RMSD>
1

> <PUBCHEM_CONFORMER_DIVERSEORDER>
1
27
19
34
5
35
18
22
44
10
36
31
41
9
32
30
37
23
16
3
24
11
7
33
21
13
15
26
8
28
46
12
45
20
40
43
38
17
29
39
2
4
14
42
6
25

> <PUBCHEM_MMFF94_PARTIAL_CHARGES>
37
1 -0.56
10 0.28
11 0.28
12 0.37
13 0.3
14 0.28
15 0.28
16 0.57
17 0.72
18 0.34
19 0.31
2 -0.56
20 0.16
21 -0.15
23 0.28
24 -0.15
25 -0.15
26 0.1
27 -0.15
28 -0.15
29 0.37
3 -0.57
30 0.37
39 0.37
4 -0.56
40 0.4
43 0.15
44 0.15
48 0.15
49 0.15
5 -0.73
50 0.15
51 0.15
6 -0.87
7 -0.62
8 -0.62
9 -0.84

> <PUBCHEM_EFFECTIVE_ROTOR_COUNT>
9.2

> <PUBCHEM_PHARMACOPHORE_FEATURES>
13
1 1 acceptor
1 2 acceptor
1 3 acceptor
1 4 acceptor
1 5 donor
1 6 donor
1 7 acceptor
1 9 cation
4 6 7 8 17 cation
5 1 10 11 12 14 rings
5 2 10 11 13 15 rings
6 22 24 25 26 27 28 rings
6 7 8 17 19 20 21 rings

> <PUBCHEM_HEAVY_ATOM_COUNT>
30

> <PUBCHEM_ATOM_DEF_STEREO_COUNT>
4

> <PUBCHEM_ATOM_UDEF_STEREO_COUNT>
0

> <PUBCHEM_BOND_DEF_STEREO_COUNT>
0

> <PUBCHEM_BOND_UDEF_STEREO_COUNT>
0

> <PUBCHEM_ISOTOPIC_ATOM_COUNT>
0

> <PUBCHEM_COMPONENT_COUNT>
1

> <PUBCHEM_CACTVS_TAUTO_COUNT>
6

> <PUBCHEM_CONFORMER_ID>
00B62FC800000001

> <PUBCHEM_MMFF94_ENERGY>
102.3904

> <PUBCHEM_FEATURE_SELFOVERLAP>
66.686

> <PUBCHEM_SHAPE_FINGERPRINT>
10049733 73 10588721864389215436
10670039 82 18270950336482407982
10917259 128 18196358429433548960
11374522 72 18187643541094002517
11410812 94 18200039581562603132
11475781 23 17846216683629727080
1200032 147 18341343184190493881
12104220 4 18187942689423039724
12342043 65 14925901532901783082
12390115 104 17846779594859468075
12975358 362 18052549768652067153
13383665 225 18202007617144143783
13828863 39 17894634793837022254
13885169 86 17677337241999859484
13944108 23 17553770560273547833
14114211 68 17845661344110102923
14187579 7 17908702083469659492
1454969 45 17987781000782322255
14765038 42 17749959989425586988
14790565 3 18059845126890332001
14840074 17 17968093144309437709
15131766 46 17749940184677068837
15198563 99 17700390737181482375
15238133 3 18058994113010947610
15357212 105 18335996306252531107
16120349 67 18337684104288457974
16991971 28 17554311898595868391
16992727 255 18341896303586766856
16993427 108 9150891620535699637
1768 23 18114466738354428348
19304671 126 16271915005013587017
19309040 13 18187654612759334042
21033650 10 18197499743523361418
21315764 119 18131359605207307364
21458453 9 14057574560106413700
21756936 100 18261951963734042426
21772528 278 17386296509842906504
21774942 28 18265617779353203428
245318 6 18340771442887832229
24771750 20 17845942801807251263
3552219 110 17970904703665273943
3610482 184 18264774431783785198
38570 142 18187372043072423598
4058900 60 18270684147990980611
4258327 124 18040704905820322743
439807 62 9799109887077648049
444735 79 11674889917917850262
5252454 2 18340187631760984481
57634706 229 17314807398082446064
57724786 102 18261105227889828770
5911458 16 18334019410226643196
6034566 193 17968648427761813055
6058803 2 18192966362082148754
6523845 18 17489599991112547123
7808743 9 18271798038799894095

> <PUBCHEM_SHAPE_MULTIPOLES>
569
17.64
4.66
2.44
2.53
0.14
-0.46
25.05
-5.77
-1.41
-1.98
3.61
0.06
-7.21

> <PUBCHEM_SHAPE_SELFOVERLAP>
1217.208

> <PUBCHEM_SHAPE_VOLUME>
315.7

> <PUBCHEM_COORDINATE_TYPE>
2
5
10

$$$$
