45783662
  -OEChem-12032416223D

 49 53  0     1  0  0  0  0  0999 V2000
   -2.0432   -1.0253    2.0152 O   0  0  0  0  0  0  0  0  0  0  0  0
   -2.7745    1.9837   -0.8077 O   0  0  0  0  0  0  0  0  0  0  0  0
    0.1332    2.4410   -1.4111 O   0  0  0  0  0  0  0  0  0  0  0  0
   -4.1384   -0.6158   -0.7760 N   0  0  1  0  0  0  0  0  0  0  0  0
   -1.1427   -1.1985   -0.0283 N   0  0  0  0  0  0  0  0  0  0  0  0
   -0.6726   -0.7825    2.1717 N   0  0  0  0  0  0  0  0  0  0  0  0
    3.4287   -0.2576    1.3281 N   0  0  0  0  0  0  0  0  0  0  0  0
    5.1724   -0.2236   -0.2398 N   0  0  0  0  0  0  0  0  0  0  0  0
    7.3329    0.1738    0.0855 N   0  0  0  0  0  0  0  0  0  0  0  0
   -3.6554   -1.5547    0.2563 C   0  0  1  0  0  0  0  0  0  0  0  0
   -3.8065   -2.9483   -0.3810 C   0  0  0  0  0  0  0  0  0  0  0  0
   -4.4374   -2.6965   -1.7431 C   0  0  0  0  0  0  0  0  0  0  0  0
   -5.1155   -1.3513   -1.5790 C   0  0  0  0  0  0  0  0  0  0  0  0
   -4.6966    0.6106   -0.2212 C   0  0  0  0  0  0  0  0  0  0  0  0
   -2.2347   -1.2616    0.6909 C   0  0  0  0  0  0  0  0  0  0  0  0
   -3.6211    1.5857    0.1780 C   0  0  0  0  0  0  0  0  0  0  0  0
   -3.2920    2.1881    1.3701 C   0  0  0  0  0  0  0  0  0  0  0  0
   -0.2108   -0.9021    0.9234 C   0  0  0  0  0  0  0  0  0  0  0  0
   -1.8953    2.8497   -0.2385 C   0  0  0  0  0  0  0  0  0  0  0  0
   -2.1714    3.0090    1.0995 C   0  0  0  0  0  0  0  0  0  0  0  0
    1.1750   -0.7335    0.5939 C   0  0  0  0  0  0  0  0  0  0  0  0
   -0.8726    3.4169   -1.1289 C   0  0  0  0  0  0  0  0  0  0  0  0
    1.6220   -0.8666   -0.7161 C   0  0  0  0  0  0  0  0  0  0  0  0
    2.1100   -0.4309    1.5706 C   0  0  0  0  0  0  0  0  0  0  0  0
    2.9714   -0.6957   -1.0050 C   0  0  0  0  0  0  0  0  0  0  0  0
    3.8261   -0.3948    0.0432 C   0  0  0  0  0  0  0  0  0  0  0  0
    5.7601   -0.3218   -1.4695 C   0  0  0  0  0  0  0  0  0  0  0  0
    6.1556    0.0753    0.6620 C   0  0  0  0  0  0  0  0  0  0  0  0
    7.0933   -0.0726   -1.2433 C   0  0  0  0  0  0  0  0  0  0  0  0
   -4.3067   -1.5285    1.1414 H   0  0  0  0  0  0  0  0  0  0  0  0
   -2.8635   -3.4960   -0.4839 H   0  0  0  0  0  0  0  0  0  0  0  0
   -4.4837   -3.5598    0.2279 H   0  0  0  0  0  0  0  0  0  0  0  0
   -5.1374   -3.4876   -2.0275 H   0  0  0  0  0  0  0  0  0  0  0  0
   -3.6558   -2.6400   -2.5110 H   0  0  0  0  0  0  0  0  0  0  0  0
   -5.2988   -0.8730   -2.5460 H   0  0  0  0  0  0  0  0  0  0  0  0
   -6.0705   -1.4684   -1.0512 H   0  0  0  0  0  0  0  0  0  0  0  0
   -5.2983    1.1210   -0.9856 H   0  0  0  0  0  0  0  0  0  0  0  0
   -5.3708    0.4153    0.6221 H   0  0  0  0  0  0  0  0  0  0  0  0
   -3.7945    2.0523    2.3170 H   0  0  0  0  0  0  0  0  0  0  0  0
   -1.6332    3.6366    1.7954 H   0  0  0  0  0  0  0  0  0  0  0  0
   -0.3880    4.2821   -0.6654 H   0  0  0  0  0  0  0  0  0  0  0  0
   -1.3184    3.7360   -2.0764 H   0  0  0  0  0  0  0  0  0  0  0  0
    0.9411   -1.1016   -1.5302 H   0  0  0  0  0  0  0  0  0  0  0  0
    1.8433   -0.3096    2.6163 H   0  0  0  0  0  0  0  0  0  0  0  0
    3.2711   -0.8089   -2.0389 H   0  0  0  0  0  0  0  0  0  0  0  0
    0.7820    2.8643   -1.9988 H   0  0  0  0  0  0  0  0  0  0  0  0
    5.2507   -0.5483   -2.3945 H   0  0  0  0  0  0  0  0  0  0  0  0
    5.9738    0.2119    1.7201 H   0  0  0  0  0  0  0  0  0  0  0  0
    7.8928   -0.0581   -1.9696 H   0  0  0  0  0  0  0  0  0  0  0  0
  1  6  1  0  0  0  0
  1 15  1  0  0  0  0
  2 16  1  0  0  0  0
  2 19  1  0  0  0  0
  3 22  1  0  0  0  0
  3 46  1  0  0  0  0
  4 10  1  0  0  0  0
  4 13  1  0  0  0  0
  4 14  1  0  0  0  0
  5 15  2  0  0  0  0
  5 18  1  0  0  0  0
  6 18  2  0  0  0  0
  7 24  1  0  0  0  0
  7 26  2  0  0  0  0
  8 26  1  0  0  0  0
  8 27  1  0  0  0  0
  8 28  1  0  0  0  0
  9 28  2  0  0  0  0
  9 29  1  0  0  0  0
 10 11  1  0  0  0  0
 10 15  1  0  0  0  0
 10 30  1  0  0  0  0
 11 12  1  0  0  0  0
 11 31  1  0  0  0  0
 11 32  1  0  0  0  0
 12 13  1  0  0  0  0
 12 33  1  0  0  0  0
 12 34  1  0  0  0  0
 13 35  1  0  0  0  0
 13 36  1  0  0  0  0
 14 16  1  0  0  0  0
 14 37  1  0  0  0  0
 14 38  1  0  0  0  0
 16 17  2  0  0  0  0
 17 20  1  0  0  0  0
 17 39  1  0  0  0  0
 18 21  1  0  0  0  0
 19 20  2  0  0  0  0
 19 22  1  0  0  0  0
 20 40  1  0  0  0  0
 21 23  1  0  0  0  0
 21 24  2  0  0  0  0
 22 41  1  0  0  0  0
 22 42  1  0  0  0  0
 23 25  2  0  0  0  0
 23 43  1  0  0  0  0
 24 44  1  0  0  0  0
 25 26  1  0  0  0  0
 25 45  1  0  0  0  0
 27 29  2  0  0  0  0
 27 47  1  0  0  0  0
 28 48  1  0  0  0  0
 29 49  1  0  0  0  0
M  END
> <PUBCHEM_COMPOUND_CID>
45783662

> <PUBCHEM_CONFORMER_RMSD>
1

> <PUBCHEM_CONFORMER_DIVERSEORDER>
1
123
121
60
126
38
106
71
36
98
6
111
114
92
130
19
13
59
42
17
83
57
22
129
135
64
104
45
70
77
134
21
37
41
67
39
73
127
69
122
34
96
95
24
101
132
90
74
84
109
3
33
9
49
35
105
44
102
81
11
8
94
20
52
87
51
80
82
5
68
110
136
66
29
103
7
120
119
55
125
61
89
128
18
88
76
27
97
72
79
108
117
113
12
116
131
30
23
40
86
112
47
53
48
25
4
28
118
63
50
56
107
65
62
85
16
91
115
31
93
10
14
43
133
26
54
46
32
2
99
58
100
78
124
75
15

> <PUBCHEM_MMFF94_PARTIAL_CHARGES>
36
1 -0.02
10 0.45
13 0.27
14 0.45
15 0.3
16 -0.04
17 -0.15
18 0.46
19 -0.04
2 -0.28
20 -0.15
21 0.05
22 0.46
23 -0.15
24 0.16
25 -0.15
26 0.29
27 -0.3
28 0.04
29 0.08
3 -0.68
39 0.15
4 -0.81
40 0.15
43 0.15
44 0.15
45 0.15
46 0.4
47 0.15
48 0.15
49 0.15
5 -0.57
6 -0.41
7 -0.62
8 0.33
9 -0.57

> <PUBCHEM_EFFECTIVE_ROTOR_COUNT>
7

> <PUBCHEM_PHARMACOPHORE_FEATURES>
12
1 2 acceptor
1 3 acceptor
1 3 donor
1 4 cation
3 5 6 18 cation
3 7 8 26 cation
3 8 9 28 cation
5 1 5 6 15 18 rings
5 2 16 17 19 20 rings
5 4 10 11 12 13 rings
5 8 9 27 28 29 rings
6 7 21 23 24 25 26 rings

> <PUBCHEM_HEAVY_ATOM_COUNT>
29

> <PUBCHEM_ATOM_DEF_STEREO_COUNT>
1

> <PUBCHEM_ATOM_UDEF_STEREO_COUNT>
0

> <PUBCHEM_BOND_DEF_STEREO_COUNT>
0

> <PUBCHEM_BOND_UDEF_STEREO_COUNT>
0

> <PUBCHEM_ISOTOPIC_ATOM_COUNT>
0

> <PUBCHEM_COMPONENT_COUNT>
1

> <PUBCHEM_CACTVS_TAUTO_COUNT>
1

> <PUBCHEM_CONFORMER_ID>
02BA9A6E00000001

> <PUBCHEM_MMFF94_ENERGY>
42.5118

> <PUBCHEM_FEATURE_SELFOVERLAP>
61.017

> <PUBCHEM_SHAPE_FINGERPRINT>
10087517 78 18334296453144964916
10454371 7 18412834577481155540
10670039 82 18407758127931622242
10871710 139 18114458938772972437
11101153 10 18267590285278878132
11477941 20 18341324574219156252
11578080 2 17772491009433242700
12788726 201 18114734949902176504
13782708 43 17917714608868924262
13947920 75 18335698334263913695
14910302 57 18059006177310408879
15183329 4 18186804639565236698
15876981 60 18335707173559745861
17492 54 18115570562524839605
17686467 74 18267017448637289168
17980427 23 18041293118412403620
19489759 90 18408887343316132978
19958102 18 18271807861400851510
20775438 99 16972209641934170727
21236236 1 18409451362737327972
23402539 116 18407759256986177934
23557571 272 18201718462017028799
255183 451 17837483412957488503
469060 322 18043273326206613841
484985 159 12391498785874190477
497634 4 17346888852903069562
5171179 24 18270395122024342288
531348 171 18270966726357814406
6608658 132 18260261932572700836
7237137 82 18413388726666291904

> <PUBCHEM_SHAPE_MULTIPOLES>
549.31
14.82
3.26
1.72
27.78
2.27
0.26
-4
-4.83
-6.23
-0.91
-0.22
-0.12
-1.01

> <PUBCHEM_SHAPE_SELFOVERLAP>
1212.01

> <PUBCHEM_SHAPE_VOLUME>
299.3

> <PUBCHEM_COORDINATE_TYPE>
2
5
10

$$$$
