75536702
  -OEChem-12032416313D

 53 55  0     1  0  0  0  0  0999 V2000
    4.1738    1.9501   -0.0362 S   0  0  0  0  0  0  0  0  0  0  0  0
   -8.3571    0.0469   -0.5716 F   0  0  0  0  0  0  0  0  0  0  0  0
   -7.4092   -1.0022    1.0805 F   0  0  0  0  0  0  0  0  0  0  0  0
   -0.0841    0.9289   -1.3381 O   0  0  0  0  0  0  0  0  0  0  0  0
   -0.8062    0.5755    2.1632 O   0  0  0  0  0  0  0  0  0  0  0  0
    4.1159    2.4382    1.3285 O   0  0  0  0  0  0  0  0  0  0  0  0
    4.8496    2.7244   -1.0596 O   0  0  0  0  0  0  0  0  0  0  0  0
   -2.9078   -0.7413    0.2330 N   0  0  0  0  0  0  0  0  0  0  0  0
    2.6013    1.5807   -0.5698 N   0  0  0  0  0  0  0  0  0  0  0  0
   -1.9386    0.3204    0.0154 C   0  0  1  0  0  0  0  0  0  0  0  0
   -4.2210   -0.3574   -0.2821 C   0  0  0  0  0  0  0  0  0  0  0  0
   -0.6630    0.1547    0.8204 C   0  0  1  0  0  0  0  0  0  0  0  0
    0.2924    1.0506    0.0437 C   0  0  1  0  0  0  0  0  0  0  0  0
   -5.0509   -1.6127   -0.5780 C   0  0  0  0  0  0  0  0  0  0  0  0
   -4.9307    0.5522    0.7283 C   0  0  0  0  0  0  0  0  0  0  0  0
   -1.3971    0.3453   -1.4045 C   0  0  0  0  0  0  0  0  0  0  0  0
   -6.4571   -1.2496   -1.0514 C   0  0  0  0  0  0  0  0  0  0  0  0
   -6.3368    0.9164    0.2554 C   0  0  0  0  0  0  0  0  0  0  0  0
   -7.1534   -0.3235   -0.0683 C   0  0  0  0  0  0  0  0  0  0  0  0
    1.7507    0.6639    0.2143 C   0  0  0  0  0  0  0  0  0  0  0  0
    4.9321    0.3535   -0.0120 C   0  0  0  0  0  0  0  0  0  0  0  0
    5.5843   -0.1256   -1.1481 C   0  0  0  0  0  0  0  0  0  0  0  0
    4.8756   -0.4283    1.1418 C   0  0  0  0  0  0  0  0  0  0  0  0
    6.1803   -1.3865   -1.1303 C   0  0  0  0  0  0  0  0  0  0  0  0
    5.4716   -1.6893    1.1595 C   0  0  0  0  0  0  0  0  0  0  0  0
    6.1241   -2.1685    0.0235 C   0  0  0  0  0  0  0  0  0  0  0  0
    6.7613   -3.5167    0.0424 C   0  0  0  0  0  0  0  0  0  0  0  0
   -2.3564    1.3029    0.2671 H   0  0  0  0  0  0  0  0  0  0  0  0
   -4.1181    0.1820   -1.2330 H   0  0  0  0  0  0  0  0  0  0  0  0
   -0.3228   -0.8883    0.8111 H   0  0  0  0  0  0  0  0  0  0  0  0
    0.1596    2.1029    0.3278 H   0  0  0  0  0  0  0  0  0  0  0  0
   -2.9742   -0.9594    1.2266 H   0  0  0  0  0  0  0  0  0  0  0  0
   -5.1258   -2.2368    0.3224 H   0  0  0  0  0  0  0  0  0  0  0  0
   -4.5566   -2.2211   -1.3454 H   0  0  0  0  0  0  0  0  0  0  0  0
   -4.3774    1.4821    0.8965 H   0  0  0  0  0  0  0  0  0  0  0  0
   -5.0048    0.0500    1.7023 H   0  0  0  0  0  0  0  0  0  0  0  0
   -1.2817   -0.6609   -1.8239 H   0  0  0  0  0  0  0  0  0  0  0  0
   -2.0181    0.9337   -2.0865 H   0  0  0  0  0  0  0  0  0  0  0  0
   -6.4089   -0.7714   -2.0371 H   0  0  0  0  0  0  0  0  0  0  0  0
   -7.0471   -2.1649   -1.1742 H   0  0  0  0  0  0  0  0  0  0  0  0
   -6.8444    1.4959    1.0349 H   0  0  0  0  0  0  0  0  0  0  0  0
   -6.2792    1.5614   -0.6297 H   0  0  0  0  0  0  0  0  0  0  0  0
    1.9208   -0.3511   -0.1617 H   0  0  0  0  0  0  0  0  0  0  0  0
    2.0177    0.7030    1.2747 H   0  0  0  0  0  0  0  0  0  0  0  0
   -1.1101    1.4989    2.1636 H   0  0  0  0  0  0  0  0  0  0  0  0
    2.4053    1.6185   -1.5779 H   0  0  0  0  0  0  0  0  0  0  0  0
    5.6339    0.4630   -2.0597 H   0  0  0  0  0  0  0  0  0  0  0  0
    4.3710   -0.0761    2.0369 H   0  0  0  0  0  0  0  0  0  0  0  0
    6.6857   -1.7490   -2.0216 H   0  0  0  0  0  0  0  0  0  0  0  0
    5.4218   -2.2887    2.0647 H   0  0  0  0  0  0  0  0  0  0  0  0
    7.8010   -3.4361    0.3747 H   0  0  0  0  0  0  0  0  0  0  0  0
    6.2288   -4.1960    0.7169 H   0  0  0  0  0  0  0  0  0  0  0  0
    6.7450   -3.9755   -0.9521 H   0  0  0  0  0  0  0  0  0  0  0  0
  1  6  2  0  0  0  0
  1  7  2  0  0  0  0
  1  9  1  0  0  0  0
  1 21  1  0  0  0  0
  2 19  1  0  0  0  0
  3 19  1  0  0  0  0
  4 13  1  0  0  0  0
  4 16  1  0  0  0  0
  5 12  1  0  0  0  0
  5 45  1  0  0  0  0
  8 10  1  0  0  0  0
  8 11  1  0  0  0  0
  8 32  1  0  0  0  0
  9 20  1  0  0  0  0
  9 46  1  0  0  0  0
 10 12  1  0  0  0  0
 10 16  1  0  0  0  0
 10 28  1  0  0  0  0
 11 14  1  0  0  0  0
 11 15  1  0  0  0  0
 11 29  1  0  0  0  0
 12 13  1  0  0  0  0
 12 30  1  0  0  0  0
 13 20  1  0  0  0  0
 13 31  1  0  0  0  0
 14 17  1  0  0  0  0
 14 33  1  0  0  0  0
 14 34  1  0  0  0  0
 15 18  1  0  0  0  0
 15 35  1  0  0  0  0
 15 36  1  0  0  0  0
 16 37  1  0  0  0  0
 16 38  1  0  0  0  0
 17 19  1  0  0  0  0
 17 39  1  0  0  0  0
 17 40  1  0  0  0  0
 18 19  1  0  0  0  0
 18 41  1  0  0  0  0
 18 42  1  0  0  0  0
 20 43  1  0  0  0  0
 20 44  1  0  0  0  0
 21 22  2  0  0  0  0
 21 23  1  0  0  0  0
 22 24  1  0  0  0  0
 22 47  1  0  0  0  0
 23 25  2  0  0  0  0
 23 48  1  0  0  0  0
 24 26  2  0  0  0  0
 24 49  1  0  0  0  0
 25 26  1  0  0  0  0
 25 50  1  0  0  0  0
 26 27  1  0  0  0  0
 27 51  1  0  0  0  0
 27 52  1  0  0  0  0
 27 53  1  0  0  0  0
M  END
> <PUBCHEM_COMPOUND_CID>
75536702

> <PUBCHEM_CONFORMER_RMSD>
1

> <PUBCHEM_CONFORMER_DIVERSEORDER>
1
125
79
139
29
121
129
166
84
152
33
101
111
16
57
80
165
62
99
60
59
131
82
119
130
105
25
89
83
36
170
126
143
38
107
76
136
128
28
106
87
64
159
162
6
109
95
74
86
41
160
161
90
175
146
4
137
40
157
70
14
24
153
174
112
63
56
34
93
133
13
145
9
69
53
12
35
5
132
45
156
169
173
91
102
118
66
65
148
30
150
18
115
23
19
168
108
172
77
123
81
26
46
37
42
54
154
17
135
48
47
151
96
100
116
114
75
122
88
49
15
167
140
127
7
61
117
141
51
142
113
22
73
68
85
97
164
155
120
44
67
158
21
20
50
163
71
78
103
110
134
94
3
8
39
149
144
98
72
10
11
58
2
138
31
52
27
147
55
92
104
171
32
124
43

> <PUBCHEM_MMFF94_PARTIAL_CHARGES>
30
1 1.45
10 0.27
11 0.27
12 0.28
13 0.28
16 0.28
19 0.68
2 -0.34
20 0.36
21 -0.01
22 -0.15
23 -0.15
24 -0.15
25 -0.15
26 -0.14
27 0.14
3 -0.34
32 0.36
4 -0.56
45 0.4
46 0.42
47 0.15
48 0.15
49 0.15
5 -0.68
50 0.15
6 -0.65
7 -0.65
8 -0.9
9 -0.91

> <PUBCHEM_EFFECTIVE_ROTOR_COUNT>
8.2

> <PUBCHEM_PHARMACOPHORE_FEATURES>
11
1 4 acceptor
1 5 acceptor
1 5 donor
1 6 acceptor
1 7 acceptor
1 8 cation
1 8 donor
1 9 donor
5 4 10 12 13 16 rings
6 11 14 15 17 18 19 rings
6 21 22 23 24 25 26 rings

> <PUBCHEM_HEAVY_ATOM_COUNT>
27

> <PUBCHEM_ATOM_DEF_STEREO_COUNT>
3

> <PUBCHEM_ATOM_UDEF_STEREO_COUNT>
0

> <PUBCHEM_BOND_DEF_STEREO_COUNT>
0

> <PUBCHEM_BOND_UDEF_STEREO_COUNT>
0

> <PUBCHEM_ISOTOPIC_ATOM_COUNT>
0

> <PUBCHEM_COMPONENT_COUNT>
1

> <PUBCHEM_CACTVS_TAUTO_COUNT>
1

> <PUBCHEM_CONFORMER_ID>
0480993E00000001

> <PUBCHEM_MMFF94_ENERGY>
39.1617

> <PUBCHEM_FEATURE_SELFOVERLAP>
55.84

> <PUBCHEM_SHAPE_FINGERPRINT>
10 15 15482664697828689506
10066227 49 18410293597424634167
10299344 5 18410857650635615191
10906281 52 13046218322003496605
117089 54 18053110523892887838
11719270 70 17418096511684012631
12166972 35 18410858771659632953
12236239 1 18334574681411086833
12516196 113 10807939271350186051
12592606 108 18342458118956587454
12717326 25 18041859337369278691
13533116 47 18412825807057404952
13617811 41 15502374526125191526
13782708 43 18412821413105297119
13914758 101 18341614785517743977
14216079 64 18408884005789005398
14347332 77 18261669273144293700
14347424 109 18131064948638731544
15119646 104 18343304751447123087
15183329 4 18408887338941764923
15188451 53 17846779568794401650
15352257 5 18334576836762281951
15419008 42 17629203702158560413
15475509 8 17458063742247712237
15685185 35 9150013175908483722
16994733 274 9151177549857622831
20505436 4 17487612168932515804
20567600 234 12247674985115880874
21130935 74 18341048622765371763
21150785 3 13479135691963697767
21344244 181 18040437698087094810
21344244 78 17203604862228706848
21641784 216 14996272592055744030
21792934 111 15123517964984713953
221357 26 17967533446363254884
2215653 11 17748830713362640896
23081809 10 18272936059188790173
23522609 53 18194996034676882068
23536379 177 18412545435802945121
23559900 14 18261393407152161648
23569943 247 18042683901510992163
23576562 1 14635450363133508943
24771293 8 12031492294570736794
255183 451 18336834092212678980
3004659 81 18343304777670204564
3014965 18 18410011035314197956
3472631 163 11170208540334921842
34797466 226 16443067227081684548
394071 54 17096090319781164860
397830 11 11455596738572941957
4072396 5 16774080678359116484
4073 2 18118123795431894722
4340502 62 13542465354274228220
465052 167 18342177748540566758
5085150 59 17060617824301232239
5372103 7 15069492465629292790
59682541 52 18187085057446703340
59755656 215 17168140118130949627
60111433 81 10810502241809620630
6438161 24 18335415743318678690
9831232 110 18337390440073924502

> <PUBCHEM_SHAPE_MULTIPOLES>
511.51
24.02
2.49
1.31
22.93
0.57
0.16
12.36
-1.14
-6.19
-0.06
-0.5
-0.14
-0.81

> <PUBCHEM_SHAPE_SELFOVERLAP>
1055.481

> <PUBCHEM_SHAPE_VOLUME>
296.3

> <PUBCHEM_COORDINATE_TYPE>
2
5
10

$$$$
