45784174
  -OEChem-12032416283D

 39 42  0     1  0  0  0  0  0999 V2000
    7.4214    1.6235   -0.7889 Cl  0  0  0  0  0  0  0  0  0  0  0  0
   -4.3172   -1.8993   -1.0602 F   0  0  0  0  0  0  0  0  0  0  0  0
    2.6717   -1.4445    0.5211 O   0  0  0  0  0  0  0  0  0  0  0  0
   -1.8370   -0.1467   -0.0206 N   0  0  1  0  0  0  0  0  0  0  0  0
    2.3305    0.7397    0.0212 N   0  0  0  0  0  0  0  0  0  0  0  0
    0.3420   -0.7360    0.6150 C   0  0  1  0  0  0  0  0  0  0  0  0
   -0.3197    0.0785    1.7401 C   0  0  0  0  0  0  0  0  0  0  0  0
   -0.5434   -0.4912   -0.6143 C   0  0  0  0  0  0  0  0  0  0  0  0
   -1.5160    0.7563    1.0846 C   0  0  0  0  0  0  0  0  0  0  0  0
   -2.7465    0.4570   -0.9832 C   0  0  0  0  0  0  0  0  0  0  0  0
    1.7970   -0.4112    0.3672 C   0  0  0  0  0  0  0  0  0  0  0  0
   -4.1757    0.4062   -0.5123 C   0  0  0  0  0  0  0  0  0  0  0  0
    3.6717    0.4538   -0.0638 C   0  0  0  0  0  0  0  0  0  0  0  0
    3.8844   -0.8824    0.2415 C   0  0  0  0  0  0  0  0  0  0  0  0
   -4.8924   -0.7886   -0.5785 C   0  0  0  0  0  0  0  0  0  0  0  0
   -4.7829    1.5567   -0.0092 C   0  0  0  0  0  0  0  0  0  0  0  0
    4.7730    1.2580   -0.3903 C   0  0  0  0  0  0  0  0  0  0  0  0
    5.1267   -1.5043    0.2510 C   0  0  0  0  0  0  0  0  0  0  0  0
   -6.2162   -0.8330   -0.1415 C   0  0  0  0  0  0  0  0  0  0  0  0
   -6.1069    1.5124    0.4279 C   0  0  0  0  0  0  0  0  0  0  0  0
    6.0441    0.6656   -0.3915 C   0  0  0  0  0  0  0  0  0  0  0  0
    6.2148   -0.6883   -0.0769 C   0  0  0  0  0  0  0  0  0  0  0  0
   -6.8235    0.3176    0.3618 C   0  0  0  0  0  0  0  0  0  0  0  0
    0.2717   -1.7981    0.8900 H   0  0  0  0  0  0  0  0  0  0  0  0
   -0.6591   -0.6023    2.5307 H   0  0  0  0  0  0  0  0  0  0  0  0
    0.3521    0.8118    2.1987 H   0  0  0  0  0  0  0  0  0  0  0  0
   -0.1536    0.3304   -1.2301 H   0  0  0  0  0  0  0  0  0  0  0  0
   -0.6099   -1.3875   -1.2406 H   0  0  0  0  0  0  0  0  0  0  0  0
   -2.3422    0.8650    1.7942 H   0  0  0  0  0  0  0  0  0  0  0  0
   -1.2247    1.7531    0.7290 H   0  0  0  0  0  0  0  0  0  0  0  0
   -2.4538    1.4842   -1.2402 H   0  0  0  0  0  0  0  0  0  0  0  0
   -2.7058   -0.0962   -1.9323 H   0  0  0  0  0  0  0  0  0  0  0  0
   -4.2355    2.4937    0.0494 H   0  0  0  0  0  0  0  0  0  0  0  0
    4.6367    2.3071   -0.6337 H   0  0  0  0  0  0  0  0  0  0  0  0
    5.2478   -2.5521    0.4956 H   0  0  0  0  0  0  0  0  0  0  0  0
   -6.7739   -1.7634   -0.1929 H   0  0  0  0  0  0  0  0  0  0  0  0
   -6.5796    2.4081    0.8201 H   0  0  0  0  0  0  0  0  0  0  0  0
    7.2096   -1.1298   -0.0835 H   0  0  0  0  0  0  0  0  0  0  0  0
   -7.8542    0.2830    0.7023 H   0  0  0  0  0  0  0  0  0  0  0  0
  1 21  1  0  0  0  0
  2 15  1  0  0  0  0
  3 11  1  0  0  0  0
  3 14  1  0  0  0  0
  4  8  1  0  0  0  0
  4  9  1  0  0  0  0
  4 10  1  0  0  0  0
  5 11  2  0  0  0  0
  5 13  1  0  0  0  0
  6  7  1  0  0  0  0
  6  8  1  0  0  0  0
  6 11  1  0  0  0  0
  6 24  1  0  0  0  0
  7  9  1  0  0  0  0
  7 25  1  0  0  0  0
  7 26  1  0  0  0  0
  8 27  1  0  0  0  0
  8 28  1  0  0  0  0
  9 29  1  0  0  0  0
  9 30  1  0  0  0  0
 10 12  1  0  0  0  0
 10 31  1  0  0  0  0
 10 32  1  0  0  0  0
 12 15  1  0  0  0  0
 12 16  2  0  0  0  0
 13 14  2  0  0  0  0
 13 17  1  0  0  0  0
 14 18  1  0  0  0  0
 15 19  2  0  0  0  0
 16 20  1  0  0  0  0
 16 33  1  0  0  0  0
 17 21  2  0  0  0  0
 17 34  1  0  0  0  0
 18 22  2  0  0  0  0
 18 35  1  0  0  0  0
 19 23  1  0  0  0  0
 19 36  1  0  0  0  0
 20 23  2  0  0  0  0
 20 37  1  0  0  0  0
 21 22  1  0  0  0  0
 22 38  1  0  0  0  0
 23 39  1  0  0  0  0
M  END
> <PUBCHEM_COMPOUND_CID>
45784174

> <PUBCHEM_CONFORMER_RMSD>
0.8

> <PUBCHEM_CONFORMER_DIVERSEORDER>
1
50
42
43
10
67
47
49
51
45
26
63
61
20
36
25
64
46
40
62
44
53
17
39
60
21
5
34
9
32
56
28
24
15
58
23
52
38
19
55
65
2
33
37
8
22
41
7
29
59
3
66
4
16
27
48
18
30
31
68
54
11
14
6
13
57
12
35

> <PUBCHEM_MMFF94_PARTIAL_CHARGES>
29
1 -0.18
10 0.41
11 0.3
12 -0.14
13 0.23
14 0.14
15 0.19
16 -0.15
17 -0.15
18 -0.15
19 -0.15
2 -0.19
20 -0.15
21 0.18
22 -0.15
23 -0.15
3 -0.28
33 0.15
34 0.15
35 0.15
36 0.15
37 0.15
38 0.15
39 0.15
4 -0.81
5 -0.57
6 0.18
8 0.27
9 0.27

> <PUBCHEM_EFFECTIVE_ROTOR_COUNT>
4

> <PUBCHEM_PHARMACOPHORE_FEATURES>
5
1 4 cation
5 3 5 11 13 14 rings
5 4 6 7 8 9 rings
6 12 15 16 19 20 23 rings
6 13 14 17 18 21 22 rings

> <PUBCHEM_HEAVY_ATOM_COUNT>
23

> <PUBCHEM_ATOM_DEF_STEREO_COUNT>
1

> <PUBCHEM_ATOM_UDEF_STEREO_COUNT>
0

> <PUBCHEM_BOND_DEF_STEREO_COUNT>
0

> <PUBCHEM_BOND_UDEF_STEREO_COUNT>
0

> <PUBCHEM_ISOTOPIC_ATOM_COUNT>
0

> <PUBCHEM_COMPONENT_COUNT>
1

> <PUBCHEM_CACTVS_TAUTO_COUNT>
1

> <PUBCHEM_CONFORMER_ID>
02BA9C6E00000001

> <PUBCHEM_MMFF94_ENERGY>
44.838

> <PUBCHEM_FEATURE_SELFOVERLAP>
25.492

> <PUBCHEM_SHAPE_FINGERPRINT>
10 15 13767931247657907212
10299344 5 18342176670276993183
10595046 47 18409165485123655457
106641 1 13695876951785831140
11315181 36 18408604769545011293
11524674 6 16056876953580893375
11646440 116 16370731417525594116
12107183 9 17545316380965089929
12166972 35 18333453140463974924
12236239 1 18342457028176890086
12516196 113 17894349977428821572
12643181 29 14333406757613307964
12730499 353 17603869970891440090
12788726 201 17274825692861962803
12916748 109 16515402941653121820
13073987 5 15936681567335693717
13167372 99 18336547110217826408
13533116 47 18342173328898120538
13690498 29 18058440071368473759
14251752 14 17989205923678010297
14251764 18 18408603673236451324
14849402 71 18262244429221346796
14856354 85 17989209274554218271
14933364 13 18411702084187304293
15183329 4 18272651233778788465
15537594 2 16343698820355180167
17844677 252 18273496784375610561
18006028 8 12103847856196377674
18335252 98 18261118503744523851
19489759 90 8142086468636482735
200 152 18342174462083418098
20157964 124 18187366528571629882
2026 5 14547921403885155684
20281389 69 17312819373136716156
21150785 3 18272092716832905956
220451 1 18201999927966188919
22224240 67 16225767436563992960
23035841 295 18201999919824445811
23081809 10 18341603811227436631
23198884 109 18334577932363531641
23402539 116 18343015584368237717
23516275 137 18127995047560619843
23522609 53 18269015157463822961
23536379 177 18411417289263937019
23559900 14 17774992527050972369
23569943 247 17097762470528845226
23622692 88 13551196593152869410
2838139 119 17676202498560130044
29717793 49 18059861632581285158
3004659 81 17418373614721599480
314173 85 14836122156633971891
335352 9 18060414713064175197
34797466 226 18130795568506035532
3545911 37 18040435490620940642
397830 11 15214167312490007220
4073 2 18041003972508661682
4325135 7 18407759244517637357
4340502 62 15647052651575431138
445580 37 17703799089250105665
5265222 85 18059292187825325431
5283156 175 17489310755208689606
542803 24 18412822477919498295
5758199 1 18040719168667935032
59682541 35 16588033433026449817
59755656 215 15195574476796664500
59755656 520 17458062677059088067
999808 66 18260839232924975259

> <PUBCHEM_SHAPE_MULTIPOLES>
452.09
20.49
1.55
1.01
2.03
0.05
0.18
4.52
-3.21
0.57
-0.14
-0.44
-0.01
-1.35

> <PUBCHEM_SHAPE_SELFOVERLAP>
985.641

> <PUBCHEM_SHAPE_VOLUME>
248.9

> <PUBCHEM_COORDINATE_TYPE>
2
5
10

$$$$
