11912177
  -OEChem-12032416113D

 55 56  0     1  0  0  0  0  0999 V2000
   -4.6530    0.1454   -1.3122 O   0  0  0  0  0  0  0  0  0  0  0  0
    2.1644   -1.2543   -1.7967 O   0  0  0  0  0  0  0  0  0  0  0  0
    5.7979   -2.3925    1.0703 O   0  0  0  0  0  0  0  0  0  0  0  0
    0.5834    0.4155   -1.5618 N   0  0  0  0  0  0  0  0  0  0  0  0
   -5.5888    0.2162    0.8090 N   0  0  0  0  0  0  0  0  0  0  0  0
    2.8350    0.8115   -0.9815 N   0  0  0  0  0  0  0  0  0  0  0  0
   -7.2325   -2.7717    0.4604 N   0  0  0  0  0  0  0  0  0  0  0  0
   -2.0985    0.8597   -0.5692 C   0  0  1  0  0  0  0  0  0  0  0  0
   -0.9222    1.7743   -0.1361 C   0  0  2  0  0  0  0  0  0  0  0  0
   -1.6105   -0.5372   -0.9946 C   0  0  0  0  0  0  0  0  0  0  0  0
    0.1533    1.7834   -1.2354 C   0  0  0  0  0  0  0  0  0  0  0  0
   -0.4976   -0.4486   -2.0381 C   0  0  0  0  0  0  0  0  0  0  0  0
   -0.3042    1.3994    1.2158 C   0  0  0  0  0  0  0  0  0  0  0  0
   -3.1937    0.7482    0.4910 C   0  0  0  0  0  0  0  0  0  0  0  0
    0.7711    2.3866    1.6184 C   0  0  0  0  0  0  0  0  0  0  0  0
   -4.5332    0.3438   -0.1003 C   0  0  0  0  0  0  0  0  0  0  0  0
    1.8970   -0.0930   -1.4779 C   0  0  0  0  0  0  0  0  0  0  0  0
   -6.9366   -0.1671    0.3955 C   0  0  0  0  0  0  0  0  0  0  0  0
   -5.4231    0.4560    2.2374 C   0  0  0  0  0  0  0  0  0  0  0  0
    4.0094    0.5152   -0.2461 C   0  0  0  0  0  0  0  0  0  0  0  0
    4.3292   -0.8090    0.0537 C   0  0  0  0  0  0  0  0  0  0  0  0
    4.8455    1.5479    0.1782 C   0  0  0  0  0  0  0  0  0  0  0  0
   -7.0995   -1.6193    0.4320 C   0  0  0  0  0  0  0  0  0  0  0  0
    5.4852   -1.1005    0.7777 C   0  0  0  0  0  0  0  0  0  0  0  0
    6.0015    1.2566    0.9023 C   0  0  0  0  0  0  0  0  0  0  0  0
    6.3213   -0.0677    1.2020 C   0  0  0  0  0  0  0  0  0  0  0  0
    4.8995   -3.3989    0.6062 C   0  0  0  0  0  0  0  0  0  0  0  0
   -2.5277    1.3354   -1.4634 H   0  0  0  0  0  0  0  0  0  0  0  0
   -1.3168    2.7966   -0.0502 H   0  0  0  0  0  0  0  0  0  0  0  0
   -1.2362   -1.0822   -0.1188 H   0  0  0  0  0  0  0  0  0  0  0  0
   -2.4322   -1.1328   -1.4063 H   0  0  0  0  0  0  0  0  0  0  0  0
   -0.2786    2.1955   -2.1574 H   0  0  0  0  0  0  0  0  0  0  0  0
    0.9730    2.4536   -0.9876 H   0  0  0  0  0  0  0  0  0  0  0  0
   -0.1297   -1.4531   -2.2679 H   0  0  0  0  0  0  0  0  0  0  0  0
   -0.8787   -0.0192   -2.9721 H   0  0  0  0  0  0  0  0  0  0  0  0
    0.1155    0.3877    1.2034 H   0  0  0  0  0  0  0  0  0  0  0  0
   -1.0767    1.4110    1.9928 H   0  0  0  0  0  0  0  0  0  0  0  0
   -2.9004    0.0164    1.2517 H   0  0  0  0  0  0  0  0  0  0  0  0
   -3.3311    1.7296    0.9609 H   0  0  0  0  0  0  0  0  0  0  0  0
    1.6851    2.2817    1.0328 H   0  0  0  0  0  0  0  0  0  0  0  0
    1.0516    2.2160    2.6638 H   0  0  0  0  0  0  0  0  0  0  0  0
    0.4198    3.4204    1.5380 H   0  0  0  0  0  0  0  0  0  0  0  0
    2.6826    1.8007   -1.1390 H   0  0  0  0  0  0  0  0  0  0  0  0
   -7.6698    0.3354    1.0351 H   0  0  0  0  0  0  0  0  0  0  0  0
   -7.0987    0.1875   -0.6285 H   0  0  0  0  0  0  0  0  0  0  0  0
   -5.7157   -0.4489    2.7793 H   0  0  0  0  0  0  0  0  0  0  0  0
   -4.4144    0.7217    2.5478 H   0  0  0  0  0  0  0  0  0  0  0  0
   -6.0897    1.2743    2.5280 H   0  0  0  0  0  0  0  0  0  0  0  0
    3.6599   -1.5999   -0.2421 H   0  0  0  0  0  0  0  0  0  0  0  0
    4.6073    2.5842   -0.0479 H   0  0  0  0  0  0  0  0  0  0  0  0
    6.6524    2.0606    1.2330 H   0  0  0  0  0  0  0  0  0  0  0  0
    7.2232   -0.2884    1.7664 H   0  0  0  0  0  0  0  0  0  0  0  0
    3.9136   -3.3072    1.0749 H   0  0  0  0  0  0  0  0  0  0  0  0
    4.8437   -3.4188   -0.4877 H   0  0  0  0  0  0  0  0  0  0  0  0
    5.3097   -4.3647    0.9195 H   0  0  0  0  0  0  0  0  0  0  0  0
  1 16  2  0  0  0  0
  2 17  2  0  0  0  0
  3 24  1  0  0  0  0
  3 27  1  0  0  0  0
  4 11  1  0  0  0  0
  4 12  1  0  0  0  0
  4 17  1  0  0  0  0
  5 16  1  0  0  0  0
  5 18  1  0  0  0  0
  5 19  1  0  0  0  0
  6 17  1  0  0  0  0
  6 20  1  0  0  0  0
  6 43  1  0  0  0  0
  7 23  3  0  0  0  0
  8  9  1  0  0  0  0
  8 10  1  0  0  0  0
  8 14  1  0  0  0  0
  8 28  1  0  0  0  0
  9 11  1  0  0  0  0
  9 13  1  0  0  0  0
  9 29  1  0  0  0  0
 10 12  1  0  0  0  0
 10 30  1  0  0  0  0
 10 31  1  0  0  0  0
 11 32  1  0  0  0  0
 11 33  1  0  0  0  0
 12 34  1  0  0  0  0
 12 35  1  0  0  0  0
 13 15  1  0  0  0  0
 13 36  1  0  0  0  0
 13 37  1  0  0  0  0
 14 16  1  0  0  0  0
 14 38  1  0  0  0  0
 14 39  1  0  0  0  0
 15 40  1  0  0  0  0
 15 41  1  0  0  0  0
 15 42  1  0  0  0  0
 18 23  1  0  0  0  0
 18 44  1  0  0  0  0
 18 45  1  0  0  0  0
 19 46  1  0  0  0  0
 19 47  1  0  0  0  0
 19 48  1  0  0  0  0
 20 21  2  0  0  0  0
 20 22  1  0  0  0  0
 21 24  1  0  0  0  0
 21 49  1  0  0  0  0
 22 25  2  0  0  0  0
 22 50  1  0  0  0  0
 24 26  2  0  0  0  0
 25 26  1  0  0  0  0
 25 51  1  0  0  0  0
 26 52  1  0  0  0  0
 27 53  1  0  0  0  0
 27 54  1  0  0  0  0
 27 55  1  0  0  0  0
M  END
> <PUBCHEM_COMPOUND_CID>
11912177

> <PUBCHEM_CONFORMER_RMSD>
1.4

> <PUBCHEM_CONFORMER_DIVERSEORDER>
1
12
10
33
81
16
72
46
68
89
77
84
78
64
32
55
82
2
21
48
66
65
49
20
3
70
74
44
80
79
75
23
43
52
58
35
17
14
60
53
87
71
19
51
54
30
24
56
29
76
15
25
38
42
45
31
18
13
47
8
50
34
57
86
26
41
67
85
6
36
9
7
73
11
27
4
88
69
83
59
5
62
22
37
40
28
61
63
39

> <PUBCHEM_MMFF94_PARTIAL_CHARGES>
27
1 -0.57
11 0.3
12 0.3
14 0.06
16 0.57
17 0.69
18 0.5
19 0.3
2 -0.57
20 0.12
21 -0.15
22 -0.15
23 0.36
24 0.08
25 -0.15
26 -0.15
27 0.28
3 -0.36
4 -0.66
43 0.37
49 0.15
5 -0.66
50 0.15
51 0.15
52 0.15
6 -0.55
7 -0.56

> <PUBCHEM_EFFECTIVE_ROTOR_COUNT>
10.2

> <PUBCHEM_PHARMACOPHORE_FEATURES>
8
1 1 acceptor
1 15 hydrophobe
1 2 acceptor
1 3 acceptor
1 6 donor
1 7 acceptor
6 20 21 22 24 25 26 rings
6 4 8 9 10 11 12 rings

> <PUBCHEM_HEAVY_ATOM_COUNT>
27

> <PUBCHEM_ATOM_DEF_STEREO_COUNT>
2

> <PUBCHEM_ATOM_UDEF_STEREO_COUNT>
0

> <PUBCHEM_BOND_DEF_STEREO_COUNT>
0

> <PUBCHEM_BOND_UDEF_STEREO_COUNT>
0

> <PUBCHEM_ISOTOPIC_ATOM_COUNT>
0

> <PUBCHEM_COMPONENT_COUNT>
1

> <PUBCHEM_CACTVS_TAUTO_COUNT>
2

> <PUBCHEM_CONFORMER_ID>
00B5C3F100000001

> <PUBCHEM_MMFF94_ENERGY>
79.0073

> <PUBCHEM_FEATURE_SELFOVERLAP>
40.597

> <PUBCHEM_SHAPE_FINGERPRINT>
10 15 17632861949289970409
11646440 116 16343709849947227673
11991303 11 11242261770407081049
12035758 1 17489586792266095617
12596602 18 18413390917094280089
12633257 1 17774998003392827972
12670543 26 11674873412105356493
12954195 1 14056987314155911127
13533116 47 18408885101754537682
13782708 43 17530969098758567671
14251757 52 11024109837018446711
14251764 18 17988641938933058069
14251764 30 18334572438957889913
14341114 176 18342451496955410198
14341114 328 17704068486910291204
14849402 71 16844726585656795361
14931854 50 12396300314644973992
15052358 14 13695868151619225345
15183329 4 13767924611421848621
15188451 53 17240478105003778828
15475509 35 18411132558717918738
15510800 12 17240779384354591843
17492 89 18125720085435712578
1768 124 18333448750896550626
18222031 100 15575001645933062356
190975 80 18342737455292545223
19377110 9 17704070672937888095
1979834 28 16917355818282055252
20105231 36 18342179930811727782
2026 5 17312819373448395179
20567600 247 18113336427500134403
21033648 29 14476950216811759998
21637258 2 17676485060063137941
21792934 111 17273983432785205913
23559900 14 15285932450031778373
25122255 55 17313116219468862155
2838139 119 11743843512624875075
3663271 9 18343304760194891273
3680242 22 17988923349632848512
4058900 60 7997706306933351813
4340502 62 18412266133657641326
465052 167 18342176686845036556
5104073 3 17488479494263707611
5718773 13 18040999592201006571
59682541 35 18060418062178395248
59682541 52 11818992980984427138
59755656 215 14129049327319462753
6201320 82 13540746942956511666
86090 222 17531535265701075498
960060 61 12035739691320337358
9689198 14 11671785992160637855

> <PUBCHEM_SHAPE_MULTIPOLES>
518.12
19.34
2.5
1.78
14.8
1.65
-0.19
10.87
9.71
-1.88
0.9
0.27
-0.13
-0.42

> <PUBCHEM_SHAPE_SELFOVERLAP>
1059.239

> <PUBCHEM_SHAPE_VOLUME>
295.3

> <PUBCHEM_COORDINATE_TYPE>
2
5
10

$$$$
