75536403
  -OEChem-12032416303D

 51 53  0     1  0  0  0  0  0999 V2000
    2.8604    0.0817    0.8094 O   0  0  0  0  0  0  0  0  0  0  0  0
    5.6166    0.5469    1.7449 O   0  0  0  0  0  0  0  0  0  0  0  0
   -1.1552   -1.9838   -1.0981 O   0  0  0  0  0  0  0  0  0  0  0  0
   -6.6376    0.8671    0.0959 O   0  0  0  0  0  0  0  0  0  0  0  0
    1.8369    2.1846   -0.8182 N   0  0  0  0  0  0  0  0  0  0  0  0
    0.1596   -2.4217   -0.9956 N   0  0  0  0  0  0  0  0  0  0  0  0
    3.7018    1.1758    0.4219 C   0  0  1  0  0  0  0  0  0  0  0  0
    5.1794    0.7636    0.4006 C   0  0  2  0  0  0  0  0  0  0  0  0
    2.9988   -1.1015    0.0190 C   0  0  1  0  0  0  0  0  0  0  0  0
    5.4113   -0.5283   -0.3783 C   0  0  0  0  0  0  0  0  0  0  0  0
    4.4368   -1.6156    0.0655 C   0  0  0  0  0  0  0  0  0  0  0  0
    3.2347    1.7891   -0.8965 C   0  0  0  0  0  0  0  0  0  0  0  0
    2.0330   -2.1403    0.5760 C   0  0  0  0  0  0  0  0  0  0  0  0
    0.6176   -1.8784    0.1359 C   0  0  0  0  0  0  0  0  0  0  0  0
    1.2607    2.3212   -2.1583 C   0  0  0  0  0  0  0  0  0  0  0  0
    1.6936    3.4401   -0.0767 C   0  0  0  0  0  0  0  0  0  0  0  0
   -0.3538   -1.0956    0.7834 C   0  0  0  0  0  0  0  0  0  0  0  0
   -1.4492   -1.1949   -0.0331 C   0  0  0  0  0  0  0  0  0  0  0  0
   -2.7818   -0.6663    0.0007 C   0  0  0  0  0  0  0  0  0  0  0  0
   -3.1807    0.1531    1.0567 C   0  0  0  0  0  0  0  0  0  0  0  0
   -3.6792   -0.9711   -1.0228 C   0  0  0  0  0  0  0  0  0  0  0  0
   -4.4766    0.6677    1.0893 C   0  0  0  0  0  0  0  0  0  0  0  0
   -4.9752   -0.4566   -0.9903 C   0  0  0  0  0  0  0  0  0  0  0  0
   -5.3739    0.3628    0.0658 C   0  0  0  0  0  0  0  0  0  0  0  0
   -6.9778    1.7005    1.2031 C   0  0  0  0  0  0  0  0  0  0  0  0
    3.5955    1.9143    1.2245 H   0  0  0  0  0  0  0  0  0  0  0  0
    5.7953    1.5723   -0.0082 H   0  0  0  0  0  0  0  0  0  0  0  0
    2.7283   -0.8824   -1.0207 H   0  0  0  0  0  0  0  0  0  0  0  0
    6.4362   -0.8882   -0.2308 H   0  0  0  0  0  0  0  0  0  0  0  0
    5.2835   -0.3433   -1.4512 H   0  0  0  0  0  0  0  0  0  0  0  0
    4.5516   -2.4992   -0.5725 H   0  0  0  0  0  0  0  0  0  0  0  0
    4.6887   -1.9181    1.0899 H   0  0  0  0  0  0  0  0  0  0  0  0
    3.8756    2.6371   -1.1727 H   0  0  0  0  0  0  0  0  0  0  0  0
    3.3600    1.0516   -1.6974 H   0  0  0  0  0  0  0  0  0  0  0  0
    2.0659   -2.1491    1.6730 H   0  0  0  0  0  0  0  0  0  0  0  0
    2.3154   -3.1452    0.2364 H   0  0  0  0  0  0  0  0  0  0  0  0
    6.5649    0.3336    1.7147 H   0  0  0  0  0  0  0  0  0  0  0  0
    0.2014    2.5948   -2.0958 H   0  0  0  0  0  0  0  0  0  0  0  0
    1.7799    3.0795   -2.7555 H   0  0  0  0  0  0  0  0  0  0  0  0
    1.3027    1.3668   -2.6952 H   0  0  0  0  0  0  0  0  0  0  0  0
    2.2567    4.2607   -0.5363 H   0  0  0  0  0  0  0  0  0  0  0  0
    0.6389    3.7367   -0.0355 H   0  0  0  0  0  0  0  0  0  0  0  0
    2.0137    3.3382    0.9643 H   0  0  0  0  0  0  0  0  0  0  0  0
   -0.2595   -0.5440    1.7074 H   0  0  0  0  0  0  0  0  0  0  0  0
   -2.5032    0.4080    1.8678 H   0  0  0  0  0  0  0  0  0  0  0  0
   -3.4061   -1.6053   -1.8624 H   0  0  0  0  0  0  0  0  0  0  0  0
   -4.7203    1.2975    1.9381 H   0  0  0  0  0  0  0  0  0  0  0  0
   -5.6700   -0.6968   -1.7905 H   0  0  0  0  0  0  0  0  0  0  0  0
   -8.0181    2.0128    1.0649 H   0  0  0  0  0  0  0  0  0  0  0  0
   -6.3704    2.6117    1.2226 H   0  0  0  0  0  0  0  0  0  0  0  0
   -6.9322    1.1508    2.1494 H   0  0  0  0  0  0  0  0  0  0  0  0
  1  7  1  0  0  0  0
  1  9  1  0  0  0  0
  2  8  1  0  0  0  0
  2 37  1  0  0  0  0
  3  6  1  0  0  0  0
  3 18  1  0  0  0  0
  4 24  1  0  0  0  0
  4 25  1  0  0  0  0
  5 12  1  0  0  0  0
  5 15  1  0  0  0  0
  5 16  1  0  0  0  0
  6 14  2  0  0  0  0
  7  8  1  0  0  0  0
  7 12  1  0  0  0  0
  7 26  1  0  0  0  0
  8 10  1  0  0  0  0
  8 27  1  0  0  0  0
  9 11  1  0  0  0  0
  9 13  1  0  0  0  0
  9 28  1  0  0  0  0
 10 11  1  0  0  0  0
 10 29  1  0  0  0  0
 10 30  1  0  0  0  0
 11 31  1  0  0  0  0
 11 32  1  0  0  0  0
 12 33  1  0  0  0  0
 12 34  1  0  0  0  0
 13 14  1  0  0  0  0
 13 35  1  0  0  0  0
 13 36  1  0  0  0  0
 14 17  1  0  0  0  0
 15 38  1  0  0  0  0
 15 39  1  0  0  0  0
 15 40  1  0  0  0  0
 16 41  1  0  0  0  0
 16 42  1  0  0  0  0
 16 43  1  0  0  0  0
 17 18  2  0  0  0  0
 17 44  1  0  0  0  0
 18 19  1  0  0  0  0
 19 20  2  0  0  0  0
 19 21  1  0  0  0  0
 20 22  1  0  0  0  0
 20 45  1  0  0  0  0
 21 23  2  0  0  0  0
 21 46  1  0  0  0  0
 22 24  2  0  0  0  0
 22 47  1  0  0  0  0
 23 24  1  0  0  0  0
 23 48  1  0  0  0  0
 25 49  1  0  0  0  0
 25 50  1  0  0  0  0
 25 51  1  0  0  0  0
M  END
> <PUBCHEM_COMPOUND_CID>
75536403

> <PUBCHEM_CONFORMER_RMSD>
0.8

> <PUBCHEM_CONFORMER_DIVERSEORDER>
1
24
104
88
172
21
41
80
147
98
125
136
31
178
7
177
62
161
184
93
170
159
149
146
43
100
113
13
59
152
168
102
123
32
108
163
14
42
115
78
148
121
135
53
122
182
137
183
120
158
35
156
160
185
97
142
50
118
38
119
127
77
47
86
65
101
18
124
63
90
114
87
92
44
27
131
71
68
180
9
151
186
165
103
5
26
85
34
54
89
30
55
91
19
39
134
181
6
162
58
110
84
12
11
145
143
106
141
66
72
20
73
36
40
67
176
112
8
51
46
17
94
49
153
175
10
82
29
48
166
130
174
74
107
99
167
75
116
2
25
28
154
61
128
96
157
57
169
171
70
83
69
52
76
79
60
33
56
109
129
139
117
173
22
64
111
133
81
155
95
4
23
105
140
126
16
15
179
3
37
132
138
150
45
144
164

> <PUBCHEM_MMFF94_PARTIAL_CHARGES>
29
1 -0.56
12 0.27
13 0.18
14 0.11
15 0.27
16 0.27
17 -0.15
18 0.09
19 0.05
2 -0.68
20 -0.15
21 -0.15
22 -0.15
23 -0.15
24 0.08
25 0.28
3 -0.02
37 0.4
4 -0.36
44 0.15
45 0.15
46 0.15
47 0.15
48 0.15
5 -0.81
6 -0.41
7 0.28
8 0.28
9 0.28

> <PUBCHEM_EFFECTIVE_ROTOR_COUNT>
7.2

> <PUBCHEM_PHARMACOPHORE_FEATURES>
9
1 1 acceptor
1 2 acceptor
1 2 donor
1 4 acceptor
1 5 cation
1 6 acceptor
5 3 6 14 17 18 rings
6 1 7 8 9 10 11 rings
6 19 20 21 22 23 24 rings

> <PUBCHEM_HEAVY_ATOM_COUNT>
25

> <PUBCHEM_ATOM_DEF_STEREO_COUNT>
3

> <PUBCHEM_ATOM_UDEF_STEREO_COUNT>
0

> <PUBCHEM_BOND_DEF_STEREO_COUNT>
0

> <PUBCHEM_BOND_UDEF_STEREO_COUNT>
0

> <PUBCHEM_ISOTOPIC_ATOM_COUNT>
0

> <PUBCHEM_COMPONENT_COUNT>
1

> <PUBCHEM_CACTVS_TAUTO_COUNT>
1

> <PUBCHEM_CONFORMER_ID>
0480981300000001

> <PUBCHEM_MMFF94_ENERGY>
63.4117

> <PUBCHEM_FEATURE_SELFOVERLAP>
45.674

> <PUBCHEM_SHAPE_FINGERPRINT>
10688039 33 17458903739277454724
10906281 52 18116433838240402864
11045977 3 17749118802621045499
11724838 91 18411136961671599067
11828532 37 17131546254356871975
12166972 35 18343582958022020529
12236239 1 18202560670680959863
12403259 118 18337107989960107571
12633257 1 17530960323681446306
13075007 39 17313683644905007601
13402501 40 17968370169879163349
13583140 156 17822009835084173011
14251764 75 18046078313054945101
14394314 77 18343586256932398977
14464042 87 18201725020195057777
15081414 286 18408602544256080140
15183329 4 17346322570329508186
15238133 3 18040439923443895750
1601671 61 18334855035158402406
17810953 82 18410860966297704604
18335252 114 18339916031399494653
20511986 3 17988348330314910169
20715895 44 18272934912094639187
21033648 144 18261664995356555559
21033648 29 16950550091631049967
21033650 10 16414103861396343074
21298829 104 18342175583160033880
21304253 335 18343864437488799044
21315763 76 18337658793898587301
22122407 14 18337405855107085065
338550 245 18334863779412013917
3459 110 17824562969871605899
3472631 163 17418089948815604777
3680242 22 18114452406058734594
397830 11 17968960660096121707
4325135 7 18410854400347899783
4409770 3 15676068406465831655
474 4 18335701663090687859
5104073 3 17969498393368315072
513532 50 17845947264245921502
57724786 102 17822582723185625213
58260988 393 14634860947374696156
6328613 192 18265902539657843044
653340 110 18269270158531179024
8509985 295 18187083970814767852
9971528 1 18412825785661553134
9981440 41 17186428587315583616

> <PUBCHEM_SHAPE_MULTIPOLES>
481.05
15.03
2.9
1.34
14.54
1.4
0.21
4.95
-4.07
-2.06
0.73
0.12
0.44
-1.37

> <PUBCHEM_SHAPE_SELFOVERLAP>
1011.379

> <PUBCHEM_SHAPE_VOLUME>
273.6

> <PUBCHEM_COORDINATE_TYPE>
2
5
10

$$$$
