25389854
  -OEChem-12032416163D

 66 70  0     1  0  0  0  0  0999 V2000
   -2.7738   -2.6923   -1.8468 O   0  0  0  0  0  0  0  0  0  0  0  0
   -1.0376   -1.2866   -2.4350 O   0  0  0  0  0  0  0  0  0  0  0  0
    7.1768    1.1872    0.8510 O   0  0  0  0  0  0  0  0  0  0  0  0
   -0.5278   -0.6436    0.1750 N   0  0  2  0  0  0  0  0  0  0  0  0
    2.6958    2.1673    0.3026 N   0  0  0  0  0  0  0  0  0  0  0  0
   -2.6372    2.4458   -0.1629 N   0  0  0  0  0  0  0  0  0  0  0  0
    6.2587    2.8461   -0.5018 N   0  0  0  0  0  0  0  0  0  0  0  0
   -0.7588    0.7212   -0.3911 C   0  0  2  0  0  0  0  0  0  0  0  0
    0.8275   -1.1567   -0.1486 C   0  0  1  0  0  0  0  0  0  0  0  0
    0.2931    1.7117    0.1323 C   0  0  0  0  0  0  0  0  0  0  0  0
    1.7006    1.2367   -0.2272 C   0  0  2  0  0  0  0  0  0  0  0  0
    1.9230   -0.1707    0.3244 C   0  0  0  0  0  0  0  0  0  0  0  0
   -1.6397   -1.5886   -0.1197 C   0  0  1  0  0  0  0  0  0  0  0  0
   -2.1521    1.1713   -0.0677 C   0  0  0  0  0  0  0  0  0  0  0  0
   -2.9914   -1.1206    0.4773 C   0  0  0  0  0  0  0  0  0  0  0  0
   -3.1877    0.3455    0.3115 C   0  0  0  0  0  0  0  0  0  0  0  0
    1.1397   -2.5212    0.4609 C   0  0  0  0  0  0  0  0  0  0  0  0
   -4.3440    1.1525    0.4899 C   0  0  0  0  0  0  0  0  0  0  0  0
   -3.9709    2.4658    0.1869 C   0  0  0  0  0  0  0  0  0  0  0  0
   -1.7577   -1.8174   -1.6002 C   0  0  0  0  0  0  0  0  0  0  0  0
    3.9561    2.0361   -0.4120 C   0  0  0  0  0  0  0  0  0  0  0  0
    1.9507   -3.4233   -0.2276 C   0  0  0  0  0  0  0  0  0  0  0  0
    0.6140   -2.8658    1.7060 C   0  0  0  0  0  0  0  0  0  0  0  0
   -5.6757    0.8983    0.8752 C   0  0  0  0  0  0  0  0  0  0  0  0
   -4.8678    3.5382    0.2523 C   0  0  0  0  0  0  0  0  0  0  0  0
    4.9963    2.9802    0.1727 C   0  0  0  0  0  0  0  0  0  0  0  0
   -6.5818    1.9624    0.9464 C   0  0  0  0  0  0  0  0  0  0  0  0
    2.2362   -4.6701    0.3290 C   0  0  0  0  0  0  0  0  0  0  0  0
    0.8992   -4.1125    2.2626 C   0  0  0  0  0  0  0  0  0  0  0  0
   -6.1820    3.2613    0.6394 C   0  0  0  0  0  0  0  0  0  0  0  0
    1.7103   -5.0147    1.5741 C   0  0  0  0  0  0  0  0  0  0  0  0
   -2.9977   -3.0018   -3.2260 C   0  0  0  0  0  0  0  0  0  0  0  0
    7.2479    1.9564   -0.1040 C   0  0  0  0  0  0  0  0  0  0  0  0
    8.4575    2.0021   -0.9986 C   0  0  0  0  0  0  0  0  0  0  0  0
   -0.6674    0.7208   -1.4829 H   0  0  0  0  0  0  0  0  0  0  0  0
    0.9368   -1.2481   -1.2354 H   0  0  0  0  0  0  0  0  0  0  0  0
    0.1247    2.7057   -0.3027 H   0  0  0  0  0  0  0  0  0  0  0  0
    0.1931    1.8275    1.2212 H   0  0  0  0  0  0  0  0  0  0  0  0
    1.7631    1.2103   -1.3242 H   0  0  0  0  0  0  0  0  0  0  0  0
    1.9414   -0.1364    1.4237 H   0  0  0  0  0  0  0  0  0  0  0  0
    2.9024   -0.5557    0.0145 H   0  0  0  0  0  0  0  0  0  0  0  0
   -1.4503   -2.5753    0.3119 H   0  0  0  0  0  0  0  0  0  0  0  0
   -2.9886   -1.3352    1.5544 H   0  0  0  0  0  0  0  0  0  0  0  0
   -3.8438   -1.6581    0.0483 H   0  0  0  0  0  0  0  0  0  0  0  0
    2.3608    3.1257    0.2041 H   0  0  0  0  0  0  0  0  0  0  0  0
   -2.1049    3.2576   -0.4440 H   0  0  0  0  0  0  0  0  0  0  0  0
    3.8215    2.2647   -1.4770 H   0  0  0  0  0  0  0  0  0  0  0  0
    4.3443    1.0137   -0.3483 H   0  0  0  0  0  0  0  0  0  0  0  0
    2.3679   -3.1666   -1.1976 H   0  0  0  0  0  0  0  0  0  0  0  0
    0.0013   -2.1742    2.2779 H   0  0  0  0  0  0  0  0  0  0  0  0
   -6.0023   -0.1091    1.1165 H   0  0  0  0  0  0  0  0  0  0  0  0
   -4.5584    4.5499    0.0119 H   0  0  0  0  0  0  0  0  0  0  0  0
    5.1423    2.7798    1.2405 H   0  0  0  0  0  0  0  0  0  0  0  0
    4.6804    4.0236    0.0631 H   0  0  0  0  0  0  0  0  0  0  0  0
   -7.6094    1.7716    1.2440 H   0  0  0  0  0  0  0  0  0  0  0  0
    2.8681   -5.3722   -0.2068 H   0  0  0  0  0  0  0  0  0  0  0  0
    0.4950   -4.3788    3.2348 H   0  0  0  0  0  0  0  0  0  0  0  0
   -6.9026    4.0728    0.7005 H   0  0  0  0  0  0  0  0  0  0  0  0
    1.9337   -5.9849    2.0082 H   0  0  0  0  0  0  0  0  0  0  0  0
   -3.8307   -3.7072   -3.2852 H   0  0  0  0  0  0  0  0  0  0  0  0
   -2.1084   -3.4707   -3.6579 H   0  0  0  0  0  0  0  0  0  0  0  0
   -3.2645   -2.0957   -3.7783 H   0  0  0  0  0  0  0  0  0  0  0  0
    6.4190    3.4253   -1.3209 H   0  0  0  0  0  0  0  0  0  0  0  0
    8.7544    3.0381   -1.1854 H   0  0  0  0  0  0  0  0  0  0  0  0
    9.2905    1.4816   -0.5181 H   0  0  0  0  0  0  0  0  0  0  0  0
    8.2256    1.5126   -1.9484 H   0  0  0  0  0  0  0  0  0  0  0  0
  1 20  1  0  0  0  0
  1 32  1  0  0  0  0
  2 20  2  0  0  0  0
  3 33  2  0  0  0  0
  4  8  1  0  0  0  0
  4  9  1  0  0  0  0
  4 13  1  0  0  0  0
  5 11  1  0  0  0  0
  5 21  1  0  0  0  0
  5 45  1  0  0  0  0
  6 14  1  0  0  0  0
  6 19  1  0  0  0  0
  6 46  1  0  0  0  0
  7 26  1  0  0  0  0
  7 33  1  0  0  0  0
  7 63  1  0  0  0  0
  8 10  1  0  0  0  0
  8 14  1  0  0  0  0
  8 35  1  0  0  0  0
  9 12  1  0  0  0  0
  9 17  1  0  0  0  0
  9 36  1  0  0  0  0
 10 11  1  0  0  0  0
 10 37  1  0  0  0  0
 10 38  1  0  0  0  0
 11 12  1  0  0  0  0
 11 39  1  0  0  0  0
 12 40  1  0  0  0  0
 12 41  1  0  0  0  0
 13 15  1  0  0  0  0
 13 20  1  0  0  0  0
 13 42  1  0  0  0  0
 14 16  2  0  0  0  0
 15 16  1  0  0  0  0
 15 43  1  0  0  0  0
 15 44  1  0  0  0  0
 16 18  1  0  0  0  0
 17 22  2  0  0  0  0
 17 23  1  0  0  0  0
 18 19  1  0  0  0  0
 18 24  2  0  0  0  0
 19 25  2  0  0  0  0
 21 26  1  0  0  0  0
 21 47  1  0  0  0  0
 21 48  1  0  0  0  0
 22 28  1  0  0  0  0
 22 49  1  0  0  0  0
 23 29  2  0  0  0  0
 23 50  1  0  0  0  0
 24 27  1  0  0  0  0
 24 51  1  0  0  0  0
 25 30  1  0  0  0  0
 25 52  1  0  0  0  0
 26 53  1  0  0  0  0
 26 54  1  0  0  0  0
 27 30  2  0  0  0  0
 27 55  1  0  0  0  0
 28 31  2  0  0  0  0
 28 56  1  0  0  0  0
 29 31  1  0  0  0  0
 29 57  1  0  0  0  0
 30 58  1  0  0  0  0
 31 59  1  0  0  0  0
 32 60  1  0  0  0  0
 32 61  1  0  0  0  0
 32 62  1  0  0  0  0
 33 34  1  0  0  0  0
 34 64  1  0  0  0  0
 34 65  1  0  0  0  0
 34 66  1  0  0  0  0
M  END
> <PUBCHEM_COMPOUND_CID>
25389854

> <PUBCHEM_CONFORMER_RMSD>
1

> <PUBCHEM_CONFORMER_DIVERSEORDER>
1
42
29
38
13
21
39
7
16
33
14
37
32
27
5
15
25
44
28
35
11
8
26
23
12
30
17
4
40
18
20
41
43
19
10
34
22
36
2
31
9
3
45
6
24

> <PUBCHEM_MMFF94_PARTIAL_CHARGES>
43
1 -0.43
11 0.27
13 0.33
14 -0.33
15 0.18
16 -0.18
17 -0.14
19 -0.15
2 -0.57
20 0.66
21 0.27
22 -0.15
23 -0.15
24 -0.15
25 -0.15
26 0.3
27 -0.15
28 -0.15
29 -0.15
3 -0.57
30 -0.15
31 -0.15
32 0.28
33 0.57
34 0.06
4 -0.81
45 0.36
46 0.27
49 0.15
5 -0.9
50 0.15
51 0.15
52 0.15
55 0.15
56 0.15
57 0.15
58 0.15
59 0.15
6 0.03
63 0.37
7 -0.73
8 0.45
9 0.41

> <PUBCHEM_EFFECTIVE_ROTOR_COUNT>
9.2

> <PUBCHEM_PHARMACOPHORE_FEATURES>
13
1 2 acceptor
1 3 acceptor
1 4 cation
1 5 cation
1 5 donor
1 6 cation
1 6 donor
1 7 donor
5 6 14 16 18 19 rings
6 17 22 23 28 29 31 rings
6 18 19 24 25 27 30 rings
6 4 8 13 14 15 16 rings
6 4 8 9 10 11 12 rings

> <PUBCHEM_HEAVY_ATOM_COUNT>
34

> <PUBCHEM_ATOM_DEF_STEREO_COUNT>
4

> <PUBCHEM_ATOM_UDEF_STEREO_COUNT>
0

> <PUBCHEM_BOND_DEF_STEREO_COUNT>
0

> <PUBCHEM_BOND_UDEF_STEREO_COUNT>
0

> <PUBCHEM_ISOTOPIC_ATOM_COUNT>
0

> <PUBCHEM_COMPONENT_COUNT>
1

> <PUBCHEM_CACTVS_TAUTO_COUNT>
2

> <PUBCHEM_CONFORMER_ID>
01836B1E00000001

> <PUBCHEM_MMFF94_ENERGY>
70.9507

> <PUBCHEM_FEATURE_SELFOVERLAP>
66.166

> <PUBCHEM_SHAPE_FINGERPRINT>
10190206 1 18199738297441816869
11135926 11 18335695022918449452
11421498 54 18125703833279977807
13140716 1 18408317783349865120
13540713 5 18271227336831411095
140371 6 17045418969695457617
14400156 350 17839461090699235501
14659021 117 17766547329031430016
14790565 3 18408604799151093496
14955137 171 17835522613983046279
15064986 266 18193285320076571956
15361156 5 18127991891545030620
15439362 3 18190743033901645473
15629462 23 17981322614302138351
15684973 49 18198606904345986170
15927050 60 18411420613627224483
16090146 7 17751352013784625006
17980427 26 18334849481186148255
19319366 153 18409731742075268104
20505436 4 18343865507014757807
20642791 35 18268437832644537462
21133665 82 18411989083699811188
21756936 100 18336548329956708232
23559900 14 17974286526479805673
244849 19 17679613089166396745
249999 5 18264490589858204984
283562 15 18123174969103762671
3383291 50 18049435144251918810
3411729 13 18339364050191160392
3610482 184 18191038991719224932
4408954 64 15579536242439506442
4516262 110 18335134276615625573
465052 167 17905051344462665363
5104073 3 18121514462476978073
5109719 28 18337965506071565656
5385378 56 18337679606946750032
563151 40 18340209682239055012
563151 97 18337100258934188991
59755656 520 18188770669049643912
6371380 46 18341049718330620920
6669772 16 18336834099673614534
9896288 288 18339369685705555443
9981440 41 18261402186075604937

> <PUBCHEM_SHAPE_MULTIPOLES>
662.17
15.56
6.56
1.7
18.72
6.52
1.17
-25.01
-0.92
4.34
-1.5
-1.09
2.58
-3.81

> <PUBCHEM_SHAPE_SELFOVERLAP>
1433.284

> <PUBCHEM_SHAPE_VOLUME>
360

> <PUBCHEM_COORDINATE_TYPE>
2
5
10

$$$$
