28960638
  -OEChem-12032416203D

 38 40  0     1  0  0  0  0  0999 V2000
   -4.6790    1.8224    1.5846 O   0  0  0  0  0  0  0  0  0  0  0  0
   -0.0729    1.3187   -1.7348 O   0  0  0  0  0  0  0  0  0  0  0  0
   -2.5554   -0.6534    0.1246 N   0  0  1  0  0  0  0  0  0  0  0  0
    0.3326    0.1059    0.1041 N   0  0  0  0  0  0  0  0  0  0  0  0
    1.3208    1.2399   -1.6197 N   0  0  0  0  0  0  0  0  0  0  0  0
    4.1234   -1.2706    1.4050 N   0  0  0  0  0  0  0  0  0  0  0  0
   -2.0865    0.5591   -0.5766 C   0  0  1  0  0  0  0  0  0  0  0  0
   -2.6803    1.7321    0.2253 C   0  0  0  0  0  0  0  0  0  0  0  0
   -3.5033    1.0791    1.3287 C   0  0  2  0  0  0  0  0  0  0  0  0
   -3.8168   -0.2962    0.7707 C   0  0  0  0  0  0  0  0  0  0  0  0
   -2.6969   -1.8067   -0.7545 C   0  0  0  0  0  0  0  0  0  0  0  0
   -0.5773    0.6255   -0.6806 C   0  0  0  0  0  0  0  0  0  0  0  0
   -3.1928   -3.0155    0.0341 C   0  0  0  0  0  0  0  0  0  0  0  0
   -1.3587   -2.1014   -1.4250 C   0  0  0  0  0  0  0  0  0  0  0  0
    1.4812    0.5095   -0.5121 C   0  0  0  0  0  0  0  0  0  0  0  0
    2.7743    0.1669    0.0057 C   0  0  0  0  0  0  0  0  0  0  0  0
    3.9058    0.8900   -0.3551 C   0  0  0  0  0  0  0  0  0  0  0  0
    2.9351   -0.8951    0.8810 C   0  0  0  0  0  0  0  0  0  0  0  0
    5.1460    0.5340    0.1631 C   0  0  0  0  0  0  0  0  0  0  0  0
    5.2007   -0.5443    1.0315 C   0  0  0  0  0  0  0  0  0  0  0  0
   -2.5107    0.6078   -1.5898 H   0  0  0  0  0  0  0  0  0  0  0  0
   -1.9192    2.3909    0.6590 H   0  0  0  0  0  0  0  0  0  0  0  0
   -3.3147    2.3514   -0.4212 H   0  0  0  0  0  0  0  0  0  0  0  0
   -2.9188    1.0005    2.2537 H   0  0  0  0  0  0  0  0  0  0  0  0
   -4.0903   -0.9739    1.5861 H   0  0  0  0  0  0  0  0  0  0  0  0
   -4.6584   -0.2478    0.0670 H   0  0  0  0  0  0  0  0  0  0  0  0
   -3.4303   -1.6029   -1.5467 H   0  0  0  0  0  0  0  0  0  0  0  0
   -2.5558   -3.2189    0.9026 H   0  0  0  0  0  0  0  0  0  0  0  0
   -4.2228   -2.8898    0.3831 H   0  0  0  0  0  0  0  0  0  0  0  0
   -3.1849   -3.9130   -0.5948 H   0  0  0  0  0  0  0  0  0  0  0  0
   -0.5476   -2.2259   -0.7000 H   0  0  0  0  0  0  0  0  0  0  0  0
   -1.0838   -1.3614   -2.1812 H   0  0  0  0  0  0  0  0  0  0  0  0
   -1.4252   -3.0518   -1.9700 H   0  0  0  0  0  0  0  0  0  0  0  0
   -4.4065    2.7128    1.8646 H   0  0  0  0  0  0  0  0  0  0  0  0
    3.8521    1.7383   -1.0327 H   0  0  0  0  0  0  0  0  0  0  0  0
    2.0983   -1.5077    1.2038 H   0  0  0  0  0  0  0  0  0  0  0  0
    6.0415    1.0839   -0.1029 H   0  0  0  0  0  0  0  0  0  0  0  0
    6.1440   -0.8620    1.4635 H   0  0  0  0  0  0  0  0  0  0  0  0
  1  9  1  0  0  0  0
  1 34  1  0  0  0  0
  2  5  1  0  0  0  0
  2 12  1  0  0  0  0
  3  7  1  0  0  0  0
  3 10  1  0  0  0  0
  3 11  1  0  0  0  0
  4 12  2  0  0  0  0
  4 15  1  0  0  0  0
  5 15  2  0  0  0  0
  6 18  1  0  0  0  0
  6 20  2  0  0  0  0
  7  8  1  0  0  0  0
  7 12  1  0  0  0  0
  7 21  1  0  0  0  0
  8  9  1  0  0  0  0
  8 22  1  0  0  0  0
  8 23  1  0  0  0  0
  9 10  1  0  0  0  0
  9 24  1  0  0  0  0
 10 25  1  0  0  0  0
 10 26  1  0  0  0  0
 11 13  1  0  0  0  0
 11 14  1  0  0  0  0
 11 27  1  0  0  0  0
 13 28  1  0  0  0  0
 13 29  1  0  0  0  0
 13 30  1  0  0  0  0
 14 31  1  0  0  0  0
 14 32  1  0  0  0  0
 14 33  1  0  0  0  0
 15 16  1  0  0  0  0
 16 17  1  0  0  0  0
 16 18  2  0  0  0  0
 17 19  2  0  0  0  0
 17 35  1  0  0  0  0
 18 36  1  0  0  0  0
 19 20  1  0  0  0  0
 19 37  1  0  0  0  0
 20 38  1  0  0  0  0
M  END
> <PUBCHEM_COMPOUND_CID>
28960638

> <PUBCHEM_CONFORMER_RMSD>
0.6

> <PUBCHEM_CONFORMER_DIVERSEORDER>
5
24
36
31
10
38
2
26
20
41
34
18
28
44
39
32
37
1
35
12
25
21
42
15
40
29
30
33
27
8
9
23
14
43
19
7
13
17
6
11
16
4
22
3

> <PUBCHEM_MMFF94_PARTIAL_CHARGES>
22
1 -0.68
10 0.27
11 0.27
12 0.3
15 0.46
16 0.05
17 -0.15
18 0.16
19 -0.15
2 -0.02
20 0.16
3 -0.81
34 0.4
35 0.15
36 0.15
37 0.15
38 0.15
4 -0.57
5 -0.41
6 -0.62
7 0.45
9 0.28

> <PUBCHEM_EFFECTIVE_ROTOR_COUNT>
4

> <PUBCHEM_PHARMACOPHORE_FEATURES>
9
1 1 acceptor
1 1 donor
1 3 cation
1 6 acceptor
3 11 13 14 hydrophobe
3 4 5 15 cation
5 2 4 5 12 15 rings
5 3 7 8 9 10 rings
6 6 16 17 18 19 20 rings

> <PUBCHEM_HEAVY_ATOM_COUNT>
20

> <PUBCHEM_ATOM_DEF_STEREO_COUNT>
2

> <PUBCHEM_ATOM_UDEF_STEREO_COUNT>
0

> <PUBCHEM_BOND_DEF_STEREO_COUNT>
0

> <PUBCHEM_BOND_UDEF_STEREO_COUNT>
0

> <PUBCHEM_ISOTOPIC_ATOM_COUNT>
0

> <PUBCHEM_COMPONENT_COUNT>
1

> <PUBCHEM_CACTVS_TAUTO_COUNT>
1

> <PUBCHEM_CONFORMER_ID>
01B9E77E00000005

> <PUBCHEM_MMFF94_ENERGY>
38.2055

> <PUBCHEM_FEATURE_SELFOVERLAP>
45.671

> <PUBCHEM_SHAPE_FINGERPRINT>
10366900 7 17703779336415461866
10498660 4 14045731613073579160
11036077 4 18341324509599292347
11370993 144 18060136501455299602
11552529 35 18130213973588203822
11725454 13 16486684741465082897
12236239 1 18334015021011996793
12251169 10 18410576179901130885
12500047 106 17918273142788375678
12549972 3 16770742505349259847
12553582 1 17676207966190231822
12616971 3 17967250897581254232
12633257 1 18273213079957438992
12788726 201 17980500149898070903
13004483 165 17056377140901577391
13167823 11 18409164441900413058
13544653 18 17167578280848318964
13583140 156 16917060075429469314
14178342 30 18341902891454565279
14341114 328 18412545435966599080
14420673 8 18127136277871813822
15209289 33 18186238450330443514
15375462 189 18259982686958453064
15537594 2 18040438759423726218
15842332 3 18044676401506227949
17780758 139 18341040848853110074
1813 80 17458636579331640254
18927931 339 17241035501875742482
19050596 39 18408882945369686224
19141452 34 18260824878183617023
19377110 9 18261383520970961208
19433438 48 18334007298333945970
200 152 17022892467606858782
20261772 1 18260830380263602450
20281475 54 18260259776868253286
20554085 129 17630596835447056881
20600515 1 18059307503689667897
20645477 70 16515963795393444884
20693207 138 14057014856995260981
21033648 29 15985098605083359362
21065198 48 18411136978434515952
212916 134 17845937325496477585
21401589 2 16701476563223966393
21673915 165 18335133224448780082
21713013 43 13840270294543600905
231179 274 15267342903529152004
23175994 123 16008750221125302053
23402539 116 16877932816352489956
23503953 91 18412822469656748008
23503958 8 18339637948856402963
23557571 272 17489321805563527757
23598291 2 18189630507984321324
23728640 28 18341615949311768107
25147074 1 18190192354431873165
27216 239 16200429182786240881
2838139 119 15410052829777092169
312423 11 18263370359308017612
495365 180 16701186257166831767
5104073 3 18340758321899458642
57265010 4 18202280312147475747
573450 72 18413669131900785618
58807428 26 18267317447639330659
5924683 9 18272926167794763495
6992083 37 18333734615424283341
7064713 232 18342451530703530778
7097593 13 18408044008964568932
90127 26 16917344862094744080
9862522 239 18264486187849211325

> <PUBCHEM_SHAPE_MULTIPOLES>
379.93
10.35
2.24
1.43
8.63
1.3
0.1
-0.01
-4.89
-3.15
0.06
-0.16
-0.21
-1.86

> <PUBCHEM_SHAPE_SELFOVERLAP>
812.096

> <PUBCHEM_SHAPE_VOLUME>
212.9

> <PUBCHEM_COORDINATE_TYPE>
2
5
10

$$$$
