51136910
  -OEChem-12032416223D

 54 58  0     1  0  0  0  0  0999 V2000
   -1.7020    2.1773   -1.7277 O   0  0  0  0  0  0  0  0  0  0  0  0
   -3.9165    0.7255    0.8208 N   0  0  1  0  0  0  0  0  0  0  0  0
   -4.0054   -3.3590   -0.3507 N   0  0  0  0  0  0  0  0  0  0  0  0
   -1.0388    1.1248    0.1350 N   0  0  0  0  0  0  0  0  0  0  0  0
   -0.3293    1.9441   -1.8797 N   0  0  0  0  0  0  0  0  0  0  0  0
    3.6336    0.6969   -1.1336 N   0  0  0  0  0  0  0  0  0  0  0  0
    6.8665   -1.8336    1.2023 N   0  0  0  0  0  0  0  0  0  0  0  0
    7.6054    0.0220   -0.1459 N   0  0  0  0  0  0  0  0  0  0  0  0
   -4.3459   -0.4944    0.1410 C   0  0  0  0  0  0  0  0  0  0  0  0
   -3.4919    1.7913   -0.1088 C   0  0  1  0  0  0  0  0  0  0  0  0
   -4.9790    1.2977    1.6481 C   0  0  0  0  0  0  0  0  0  0  0  0
   -4.7606   -1.5539    1.1651 C   0  0  0  0  0  0  0  0  0  0  0  0
   -3.2324   -1.0429   -0.7562 C   0  0  0  0  0  0  0  0  0  0  0  0
   -3.7874    3.1040    0.6400 C   0  0  0  0  0  0  0  0  0  0  0  0
   -4.4312    2.6775    1.9516 C   0  0  0  0  0  0  0  0  0  0  0  0
   -5.1192   -2.8728    0.4755 C   0  0  0  0  0  0  0  0  0  0  0  0
   -3.6407   -2.3786   -1.3828 C   0  0  0  0  0  0  0  0  0  0  0  0
   -2.0387    1.6644   -0.5152 C   0  0  0  0  0  0  0  0  0  0  0  0
   -4.3444   -4.6437   -0.9621 C   0  0  0  0  0  0  0  0  0  0  0  0
   -0.0114    1.3203   -0.7415 C   0  0  0  0  0  0  0  0  0  0  0  0
    1.3223    0.8812   -0.4487 C   0  0  0  0  0  0  0  0  0  0  0  0
    1.6176    0.2362    0.7473 C   0  0  0  0  0  0  0  0  0  0  0  0
    2.3565    1.0857   -1.3478 C   0  0  0  0  0  0  0  0  0  0  0  0
    2.9198   -0.1787    1.0039 C   0  0  0  0  0  0  0  0  0  0  0  0
    3.8826    0.0732    0.0398 C   0  0  0  0  0  0  0  0  0  0  0  0
    5.2551   -0.3282    0.2379 C   0  0  0  0  0  0  0  0  0  0  0  0
    5.5957   -1.4312    0.9937 C   0  0  0  0  0  0  0  0  0  0  0  0
    6.3119    0.3675   -0.3131 C   0  0  0  0  0  0  0  0  0  0  0  0
    7.8077   -1.0726    0.6119 C   0  0  0  0  0  0  0  0  0  0  0  0
   -5.2163   -0.2771   -0.4955 H   0  0  0  0  0  0  0  0  0  0  0  0
   -4.1121    1.7831   -1.0165 H   0  0  0  0  0  0  0  0  0  0  0  0
   -5.9289    1.3784    1.1047 H   0  0  0  0  0  0  0  0  0  0  0  0
   -5.1408    0.7480    2.5801 H   0  0  0  0  0  0  0  0  0  0  0  0
   -5.6378   -1.2359    1.7397 H   0  0  0  0  0  0  0  0  0  0  0  0
   -3.9488   -1.7292    1.8841 H   0  0  0  0  0  0  0  0  0  0  0  0
   -2.3094   -1.1949   -0.1825 H   0  0  0  0  0  0  0  0  0  0  0  0
   -3.0173   -0.3731   -1.5938 H   0  0  0  0  0  0  0  0  0  0  0  0
   -4.4983    3.7064    0.0614 H   0  0  0  0  0  0  0  0  0  0  0  0
   -2.8991    3.7180    0.8242 H   0  0  0  0  0  0  0  0  0  0  0  0
   -5.2081    3.3756    2.2769 H   0  0  0  0  0  0  0  0  0  0  0  0
   -3.6697    2.6231    2.7397 H   0  0  0  0  0  0  0  0  0  0  0  0
   -5.3533   -3.6110    1.2524 H   0  0  0  0  0  0  0  0  0  0  0  0
   -6.0256   -2.7382   -0.1296 H   0  0  0  0  0  0  0  0  0  0  0  0
   -4.4727   -2.2196   -2.0817 H   0  0  0  0  0  0  0  0  0  0  0  0
   -2.7923   -2.7550   -1.9675 H   0  0  0  0  0  0  0  0  0  0  0  0
   -3.4965   -5.0319   -1.5374 H   0  0  0  0  0  0  0  0  0  0  0  0
   -5.2098   -4.5689   -1.6306 H   0  0  0  0  0  0  0  0  0  0  0  0
   -4.5674   -5.3899   -0.1914 H   0  0  0  0  0  0  0  0  0  0  0  0
    0.8546    0.0476    1.4981 H   0  0  0  0  0  0  0  0  0  0  0  0
    2.2099    1.5809   -2.3031 H   0  0  0  0  0  0  0  0  0  0  0  0
    3.1387   -0.6626    1.9496 H   0  0  0  0  0  0  0  0  0  0  0  0
    4.8576   -2.0736    1.4633 H   0  0  0  0  0  0  0  0  0  0  0  0
    6.1692    1.2573   -0.9189 H   0  0  0  0  0  0  0  0  0  0  0  0
    8.8373   -1.3730    0.7628 H   0  0  0  0  0  0  0  0  0  0  0  0
  1  5  1  0  0  0  0
  1 18  1  0  0  0  0
  2  9  1  0  0  0  0
  2 10  1  0  0  0  0
  2 11  1  0  0  0  0
  3 16  1  0  0  0  0
  3 17  1  0  0  0  0
  3 19  1  0  0  0  0
  4 18  2  0  0  0  0
  4 20  1  0  0  0  0
  5 20  2  0  0  0  0
  6 23  1  0  0  0  0
  6 25  2  0  0  0  0
  7 27  2  0  0  0  0
  7 29  1  0  0  0  0
  8 28  1  0  0  0  0
  8 29  2  0  0  0  0
  9 12  1  0  0  0  0
  9 13  1  0  0  0  0
  9 30  1  0  0  0  0
 10 14  1  0  0  0  0
 10 18  1  0  0  0  0
 10 31  1  0  0  0  0
 11 15  1  0  0  0  0
 11 32  1  0  0  0  0
 11 33  1  0  0  0  0
 12 16  1  0  0  0  0
 12 34  1  0  0  0  0
 12 35  1  0  0  0  0
 13 17  1  0  0  0  0
 13 36  1  0  0  0  0
 13 37  1  0  0  0  0
 14 15  1  0  0  0  0
 14 38  1  0  0  0  0
 14 39  1  0  0  0  0
 15 40  1  0  0  0  0
 15 41  1  0  0  0  0
 16 42  1  0  0  0  0
 16 43  1  0  0  0  0
 17 44  1  0  0  0  0
 17 45  1  0  0  0  0
 19 46  1  0  0  0  0
 19 47  1  0  0  0  0
 19 48  1  0  0  0  0
 20 21  1  0  0  0  0
 21 22  1  0  0  0  0
 21 23  2  0  0  0  0
 22 24  2  0  0  0  0
 22 49  1  0  0  0  0
 23 50  1  0  0  0  0
 24 25  1  0  0  0  0
 24 51  1  0  0  0  0
 25 26  1  0  0  0  0
 26 27  1  0  0  0  0
 26 28  2  0  0  0  0
 27 52  1  0  0  0  0
 28 53  1  0  0  0  0
 29 54  1  0  0  0  0
M  END
> <PUBCHEM_COMPOUND_CID>
51136910

> <PUBCHEM_CONFORMER_RMSD>
0.8

> <PUBCHEM_CONFORMER_DIVERSEORDER>
1
23
48
12
19
28
52
32
55
42
21
24
30
29
5
18
35
49
45
15
25
33
38
37
47
7
3
54
16
22
27
2
46
20
50
4
26
41
36
11
34
13
39
31
51
14
43
8
17
40
53
10
44
9
6

> <PUBCHEM_MMFF94_PARTIAL_CHARGES>
30
1 -0.02
10 0.45
11 0.27
16 0.27
17 0.27
18 0.3
19 0.27
2 -0.81
20 0.46
21 0.05
22 -0.15
23 0.16
24 -0.15
25 0.31
27 0.16
28 0.16
29 0.47
3 -0.81
4 -0.57
49 0.15
5 -0.41
50 0.15
51 0.15
52 0.15
53 0.15
54 0.15
6 -0.62
7 -0.62
8 -0.62
9 0.27

> <PUBCHEM_EFFECTIVE_ROTOR_COUNT>
6.2

> <PUBCHEM_PHARMACOPHORE_FEATURES>
11
1 2 cation
1 3 cation
1 6 acceptor
1 7 acceptor
3 4 5 20 cation
3 7 8 29 cation
5 1 4 5 18 20 rings
5 2 10 11 14 15 rings
6 3 9 12 13 16 17 rings
6 6 21 22 23 24 25 rings
6 7 8 26 27 28 29 rings

> <PUBCHEM_HEAVY_ATOM_COUNT>
29

> <PUBCHEM_ATOM_DEF_STEREO_COUNT>
1

> <PUBCHEM_ATOM_UDEF_STEREO_COUNT>
0

> <PUBCHEM_BOND_DEF_STEREO_COUNT>
0

> <PUBCHEM_BOND_UDEF_STEREO_COUNT>
0

> <PUBCHEM_ISOTOPIC_ATOM_COUNT>
0

> <PUBCHEM_COMPONENT_COUNT>
1

> <PUBCHEM_CACTVS_TAUTO_COUNT>
1

> <PUBCHEM_CONFORMER_ID>
030C498E00000001

> <PUBCHEM_MMFF94_ENERGY>
58.2768

> <PUBCHEM_FEATURE_SELFOVERLAP>
55.825

> <PUBCHEM_SHAPE_FINGERPRINT>
10305334 12 18334580127388057035
10319688 45 18409445882227761357
10319926 262 18131343112037245904
10622 236 18191302895873600063
11036077 4 18412267208037625801
11089746 13 10591753278196470536
11103572 155 18270967822207672878
11135926 11 15357694146276311296
11227150 75 16266552901960042255
11315181 36 18412544297473393233
11524674 6 17703783700260809199
11545043 162 17988920085135801080
11552529 35 18342173380215987057
11963148 33 18188763947869756226
12422481 6 18271810069082717310
12616971 3 17894922810423861228
12988421 55 17840035048696294681
13009979 54 18265619960610143453
13540713 5 18190758598715414045
13583140 156 17060337414053896993
13782708 43 18409722959769390506
14344974 204 18272370918977050918
14705955 166 16988298490929623121
14844126 61 18412831304884485043
14849402 71 18336554910654662500
14856354 85 18201438056234311876
14950920 106 18202001053258391289
15021287 119 17676213459242770764
15183329 4 17603302648935709194
15250474 111 18408887347299967910
15289351 153 9942935882585507378
15320294 125 18408329886974211975
15326921 28 17979069388670418561
15348495 7 18060132142184963376
15352257 5 18272374119006682790
16110190 28 18337954459147050730
17324776 126 17627210592204485766
17780758 139 18342457036951649041
17913733 40 16056885719361256934
18927931 339 16878232960945771137
19246450 95 18340787983424179179
21033648 29 16558481794297543305
21130935 74 18410290282178997354
21236236 1 18408039606818425338
21360442 33 17190085555117797471
21774942 28 9223235148781101174
220451 1 18335143047391958992
23516275 137 18049183080710273978
23522609 53 18044968773163894724
23523787 8 17758350229818712415
24771293 8 18113338648731969156
2838139 119 10015577320668688766
3504750 166 18190170192838403796
3663271 9 18412545414655228032
3711267 37 13685144654170820250
397830 11 18131059485777818168
4073 2 18130510743391562750
4169191 19 13110379314020437370
484985 159 18410284831633481127
4938544 92 18271525308318764409
5104073 3 18272647974389475088
5364581 5 17917421090244844328
559249 180 18333732412665144813
58260988 114 17313968406317385361
6009941 240 17775006730750530128
6058803 2 18119832423907590845
6431902 208 18040434408194750042
6691757 9 18272939285257856009
68570916 9 18409731785964399048
7495541 125 18343297090037889224
7970288 3 18191584370618610995
9953998 17 18343301452980772760

> <PUBCHEM_SHAPE_MULTIPOLES>
556.07
18.91
3.93
1.53
35.1
3.49
0.06
9.74
-6.31
-9.79
0.42
-0.86
-0.5
-3.04

> <PUBCHEM_SHAPE_SELFOVERLAP>
1211.843

> <PUBCHEM_SHAPE_VOLUME>
301.9

> <PUBCHEM_COORDINATE_TYPE>
2
5
10

$$$$
