11867232
  -OEChem-12032416393D

 54 58  0     1  0  0  0  0  0999 V2000
   -2.8976    1.2646   -0.9566 S   0  0  0  0  0  0  0  0  0  0  0  0
   -0.2390    2.8826   -1.1832 O   0  0  0  0  0  0  0  0  0  0  0  0
    2.7692   -1.1373   -2.4630 O   0  0  0  0  0  0  0  0  0  0  0  0
   -3.5849    2.2847   -1.7258 O   0  0  0  0  0  0  0  0  0  0  0  0
   -1.8716    0.4484   -1.5777 O   0  0  0  0  0  0  0  0  0  0  0  0
    3.5274   -0.3095   -0.4101 N   0  0  0  0  0  0  0  0  0  0  0  0
    1.4318    1.9927    0.1973 N   0  0  0  0  0  0  0  0  0  0  0  0
   -2.2998    1.9373    0.4771 N   0  0  0  0  0  0  0  0  0  0  0  0
    2.7116   -3.4141   -0.4000 N   0  0  0  0  0  0  0  0  0  0  0  0
    3.9274    2.1467   -0.3546 C   0  0  1  0  0  0  0  0  0  0  0  0
    3.1950    0.9794    1.6863 C   0  0  2  0  0  0  0  0  0  0  0  0
    4.1213    2.0730    1.1562 C   0  0  0  0  0  0  0  0  0  0  0  0
    4.2751    0.7966   -1.0076 C   0  0  0  0  0  0  0  0  0  0  0  0
    2.4838    2.5747   -0.6468 C   0  0  0  0  0  0  0  0  0  0  0  0
    3.5833   -0.3746    1.0594 C   0  0  0  0  0  0  0  0  0  0  0  0
    1.7441    1.2916    1.3702 C   0  0  0  0  0  0  0  0  0  0  0  0
    0.7666    0.8644    2.1903 C   0  0  0  0  0  0  0  0  0  0  0  0
    0.0982    2.2606   -0.1766 C   0  0  0  0  0  0  0  0  0  0  0  0
    2.8197   -1.1865   -1.2353 C   0  0  0  0  0  0  0  0  0  0  0  0
   -0.9355    1.7431    0.7549 C   0  0  0  0  0  0  0  0  0  0  0  0
   -0.6175    1.0944    1.8757 C   0  0  0  0  0  0  0  0  0  0  0  0
    2.0464   -2.2568   -0.5972 C   0  0  0  0  0  0  0  0  0  0  0  0
    0.7272   -2.0421   -0.2433 C   0  0  0  0  0  0  0  0  0  0  0  0
   -4.1289    0.1681   -0.3167 C   0  0  0  0  0  0  0  0  0  0  0  0
    0.0401   -3.0914    0.3568 C   0  0  0  0  0  0  0  0  0  0  0  0
    2.0114   -4.4113    0.1857 C   0  0  0  0  0  0  0  0  0  0  0  0
    0.6873   -4.3019    0.5791 C   0  0  0  0  0  0  0  0  0  0  0  0
   -5.4211    0.6317   -0.1435 C   0  0  0  0  0  0  0  0  0  0  0  0
   -3.7763   -1.1323   -0.0013 C   0  0  0  0  0  0  0  0  0  0  0  0
   -6.3921   -0.2329    0.3616 C   0  0  0  0  0  0  0  0  0  0  0  0
   -4.7474   -1.9969    0.5037 C   0  0  0  0  0  0  0  0  0  0  0  0
   -6.0553   -1.5471    0.6851 C   0  0  0  0  0  0  0  0  0  0  0  0
    4.6027    2.9019   -0.7755 H   0  0  0  0  0  0  0  0  0  0  0  0
    3.3322    0.9111    2.7733 H   0  0  0  0  0  0  0  0  0  0  0  0
    3.8908    3.0388    1.6232 H   0  0  0  0  0  0  0  0  0  0  0  0
    5.1657    1.8405    1.3970 H   0  0  0  0  0  0  0  0  0  0  0  0
    4.1017    0.8429   -2.0879 H   0  0  0  0  0  0  0  0  0  0  0  0
    5.3394    0.5752   -0.8613 H   0  0  0  0  0  0  0  0  0  0  0  0
    2.2323    2.3872   -1.6983 H   0  0  0  0  0  0  0  0  0  0  0  0
    2.4051    3.6617   -0.5076 H   0  0  0  0  0  0  0  0  0  0  0  0
    2.9510   -1.1742    1.4534 H   0  0  0  0  0  0  0  0  0  0  0  0
    4.6169   -0.6287    1.3253 H   0  0  0  0  0  0  0  0  0  0  0  0
    0.9868    0.3077    3.0952 H   0  0  0  0  0  0  0  0  0  0  0  0
   -1.3615    0.7109    2.5656 H   0  0  0  0  0  0  0  0  0  0  0  0
   -2.9000    1.7923    1.3014 H   0  0  0  0  0  0  0  0  0  0  0  0
    0.2332   -1.0959   -0.4283 H   0  0  0  0  0  0  0  0  0  0  0  0
   -0.9962   -2.9681    0.6542 H   0  0  0  0  0  0  0  0  0  0  0  0
    2.5613   -5.3343    0.3372 H   0  0  0  0  0  0  0  0  0  0  0  0
    0.1717   -5.1331    1.0462 H   0  0  0  0  0  0  0  0  0  0  0  0
   -5.7009    1.6531   -0.3821 H   0  0  0  0  0  0  0  0  0  0  0  0
   -2.7634   -1.4969   -0.1320 H   0  0  0  0  0  0  0  0  0  0  0  0
   -7.4100    0.1176    0.5048 H   0  0  0  0  0  0  0  0  0  0  0  0
   -4.4847   -3.0198    0.7571 H   0  0  0  0  0  0  0  0  0  0  0  0
   -6.8112   -2.2201    1.0792 H   0  0  0  0  0  0  0  0  0  0  0  0
  1  4  2  0  0  0  0
  1  5  2  0  0  0  0
  1  8  1  0  0  0  0
  1 24  1  0  0  0  0
  2 18  2  0  0  0  0
  3 19  2  0  0  0  0
  6 13  1  0  0  0  0
  6 15  1  0  0  0  0
  6 19  1  0  0  0  0
  7 14  1  0  0  0  0
  7 16  1  0  0  0  0
  7 18  1  0  0  0  0
  8 20  1  0  0  0  0
  8 45  1  0  0  0  0
  9 22  1  0  0  0  0
  9 26  2  0  0  0  0
 10 12  1  0  0  0  0
 10 13  1  0  0  0  0
 10 14  1  0  0  0  0
 10 33  1  0  0  0  0
 11 12  1  0  0  0  0
 11 15  1  0  0  0  0
 11 16  1  0  0  0  0
 11 34  1  0  0  0  0
 12 35  1  0  0  0  0
 12 36  1  0  0  0  0
 13 37  1  0  0  0  0
 13 38  1  0  0  0  0
 14 39  1  0  0  0  0
 14 40  1  0  0  0  0
 15 41  1  0  0  0  0
 15 42  1  0  0  0  0
 16 17  2  0  0  0  0
 17 21  1  0  0  0  0
 17 43  1  0  0  0  0
 18 20  1  0  0  0  0
 19 22  1  0  0  0  0
 20 21  2  0  0  0  0
 21 44  1  0  0  0  0
 22 23  2  0  0  0  0
 23 25  1  0  0  0  0
 23 46  1  0  0  0  0
 24 28  2  0  0  0  0
 24 29  1  0  0  0  0
 25 27  2  0  0  0  0
 25 47  1  0  0  0  0
 26 27  1  0  0  0  0
 26 48  1  0  0  0  0
 27 49  1  0  0  0  0
 28 30  1  0  0  0  0
 28 50  1  0  0  0  0
 29 31  2  0  0  0  0
 29 51  1  0  0  0  0
 30 32  2  0  0  0  0
 30 52  1  0  0  0  0
 31 32  1  0  0  0  0
 31 53  1  0  0  0  0
 32 54  1  0  0  0  0
M  END
> <PUBCHEM_COMPOUND_CID>
11867232

> <PUBCHEM_CONFORMER_RMSD>
0.8

> <PUBCHEM_CONFORMER_DIVERSEORDER>
1
31
24
25
9
22
47
63
3
54
57
65
28
42
53
45
40
62
23
6
17
13
56
27
10
29
50
36
19
64
60
41
21
16
5
32
37
59
58
30
51
18
2
44
4
55
11
49
20
43
15
52
8
34
14
39
33
7
48
46
12
38
35
26
61

> <PUBCHEM_MMFF94_PARTIAL_CHARGES>
42
1 1.45
11 0.14
13 0.3
14 0.3
15 0.3
16 -0.03
17 -0.15
18 0.62
19 0.54
2 -0.57
20 0.21
21 -0.15
22 0.4
23 -0.15
24 -0.01
25 -0.15
26 0.16
27 -0.15
28 -0.15
29 -0.15
3 -0.57
30 -0.15
31 -0.15
32 -0.15
4 -0.65
43 0.15
44 0.15
45 0.42
46 0.15
47 0.15
48 0.15
49 0.15
5 -0.65
50 0.15
51 0.15
52 0.15
53 0.15
54 0.15
6 -0.66
7 -0.47
8 -0.75
9 -0.62

> <PUBCHEM_EFFECTIVE_ROTOR_COUNT>
6

> <PUBCHEM_PHARMACOPHORE_FEATURES>
11
1 2 acceptor
1 3 acceptor
1 4 acceptor
1 5 acceptor
1 8 donor
1 9 acceptor
6 24 28 29 30 31 32 rings
6 6 10 11 12 13 15 rings
6 7 10 11 12 14 16 rings
6 7 16 17 18 20 21 rings
6 9 22 23 25 26 27 rings

> <PUBCHEM_HEAVY_ATOM_COUNT>
32

> <PUBCHEM_ATOM_DEF_STEREO_COUNT>
2

> <PUBCHEM_ATOM_UDEF_STEREO_COUNT>
0

> <PUBCHEM_BOND_DEF_STEREO_COUNT>
0

> <PUBCHEM_BOND_UDEF_STEREO_COUNT>
0

> <PUBCHEM_ISOTOPIC_ATOM_COUNT>
0

> <PUBCHEM_COMPONENT_COUNT>
1

> <PUBCHEM_CACTVS_TAUTO_COUNT>
1

> <PUBCHEM_CONFORMER_ID>
00B5146000000001

> <PUBCHEM_MMFF94_ENERGY>
82.029

> <PUBCHEM_FEATURE_SELFOVERLAP>
57.425

> <PUBCHEM_SHAPE_FINGERPRINT>
11112241 14 17201622570990288225
11488393 25 18334861575945780371
12156800 1 16397543163530229430
12422481 6 18055039182591922898
12778500 126 17488761007974050953
13402501 40 18339363071170822963
1361 2 18264212572367207465
13617811 41 18113900468908064021
14114211 68 18264232299194424006
14659021 117 16895104718082869898
15664445 248 18334300880739587781
17093844 170 18340490074915636362
17349148 13 13623524637197578989
17492 54 18117019817370667868
17909252 39 18127981797496496266
19319366 153 18271799150832557231
20567600 347 18187362134034401882
20764821 26 18193271025618406327
20775438 99 17613113462077520365
20775530 9 18053097324465993119
21033650 10 16734677355637639661
21197605 99 17983297315910961663
23559900 14 18120082897456183575
238 59 18263936453546738610
25222932 49 17096928182174757355
3298306 158 18412538842964796763
338550 245 18265617774213275223
345986 75 17345752980556906563
3737641 26 18341899558870913403
392239 28 18412830179012592651
4093350 32 17418105295588425519
4280585 95 17758663456692608594
4340502 62 18059288889781266872
46194498 28 18113622317402902325
463206 1 18128814329983224567
484989 97 18338252547516340902
508706 21 18193840581601008347
5265222 85 18121505918673968388
6433294 58 18339079272701525791
86090 222 18340211911554461659

> <PUBCHEM_SHAPE_MULTIPOLES>
618.99
10.92
4.67
1.65
16.83
5.3
0.03
-0.5
-0.05
-3.04
-0.15
-0.91
-0.58
1.46

> <PUBCHEM_SHAPE_SELFOVERLAP>
1350.843

> <PUBCHEM_SHAPE_VOLUME>
334.9

> <PUBCHEM_COORDINATE_TYPE>
2
5
10

$$$$
