28961265
  -OEChem-12032416333D

 69 72  0     1  0  0  0  0  0999 V2000
   -3.5700   -6.0851   -1.3305 F   0  0  0  0  0  0  0  0  0  0  0  0
   -5.8160    3.1873    1.7162 F   0  0  0  0  0  0  0  0  0  0  0  0
   -0.8586    1.1142   -1.7888 O   0  0  0  0  0  0  0  0  0  0  0  0
   -0.0943    3.6559   -0.4017 O   0  0  0  0  0  0  0  0  0  0  0  0
   -2.9762    2.3770   -3.1400 O   0  0  0  0  0  0  0  0  0  0  0  0
    2.3473    2.1539   -0.3321 N   0  0  1  0  0  0  0  0  0  0  0  0
   -0.9224   -0.6264    0.4694 N   0  0  0  0  0  0  0  0  0  0  0  0
    6.5414    0.5533    0.2928 N   0  0  0  0  0  0  0  0  0  0  0  0
    1.3342    1.9291   -1.3483 C   0  0  1  0  0  0  0  0  0  0  0  0
    0.3592    0.7733   -1.0896 C   0  0  1  0  0  0  0  0  0  0  0  0
    0.4080    3.1062   -1.6128 C   0  0  1  0  0  0  0  0  0  0  0  0
   -0.7092    2.4165   -2.3866 C   0  0  2  0  0  0  0  0  0  0  0  0
   -0.0141    0.5061    0.3642 C   0  0  0  0  0  0  0  0  0  0  0  0
   -2.0490    3.1296   -2.3744 C   0  0  0  0  0  0  0  0  0  0  0  0
    3.4203    1.1599   -0.4358 C   0  0  0  0  0  0  0  0  0  0  0  0
    2.9035    3.5064   -0.4398 C   0  0  0  0  0  0  0  0  0  0  0  0
   -0.1941   -1.8895    0.3285 C   0  0  0  0  0  0  0  0  0  0  0  0
   -1.6412   -0.5970    1.7455 C   0  0  0  0  0  0  0  0  0  0  0  0
    4.2357    1.0974    0.8560 C   0  0  0  0  0  0  0  0  0  0  0  0
   -1.0962   -3.0104   -0.1146 C   0  0  0  0  0  0  0  0  0  0  0  0
   -2.7565    0.4143    1.7377 C   0  0  0  0  0  0  0  0  0  0  0  0
    5.3569    0.0940    0.7549 C   0  0  0  0  0  0  0  0  0  0  0  0
   -0.8205   -4.3220    0.2722 C   0  0  0  0  0  0  0  0  0  0  0  0
   -3.1346    1.0447    2.9230 C   0  0  0  0  0  0  0  0  0  0  0  0
   -2.2077   -2.7376   -0.9121 C   0  0  0  0  0  0  0  0  0  0  0  0
   -3.4119    0.7206    0.5449 C   0  0  0  0  0  0  0  0  0  0  0  0
    5.1278   -1.2195    1.1318 C   0  0  0  0  0  0  0  0  0  0  0  0
   -1.6562   -5.3606   -0.1383 C   0  0  0  0  0  0  0  0  0  0  0  0
   -4.1680    1.9817    2.9158 C   0  0  0  0  0  0  0  0  0  0  0  0
   -3.0432   -3.7762   -1.3228 C   0  0  0  0  0  0  0  0  0  0  0  0
   -4.4453    1.6573    0.5378 C   0  0  0  0  0  0  0  0  0  0  0  0
    6.1825   -2.1195    1.0278 C   0  0  0  0  0  0  0  0  0  0  0  0
   -2.7677   -5.0877   -0.9359 C   0  0  0  0  0  0  0  0  0  0  0  0
   -4.8234    2.2879    1.7232 C   0  0  0  0  0  0  0  0  0  0  0  0
    7.5431   -0.3505    0.2055 C   0  0  0  0  0  0  0  0  0  0  0  0
    7.4164   -1.6848    0.5568 C   0  0  0  0  0  0  0  0  0  0  0  0
    1.8295    1.7267   -2.3122 H   0  0  0  0  0  0  0  0  0  0  0  0
    0.7640   -0.1248   -1.5663 H   0  0  0  0  0  0  0  0  0  0  0  0
    0.8696    3.9083   -2.1986 H   0  0  0  0  0  0  0  0  0  0  0  0
   -0.3960    2.2336   -3.4225 H   0  0  0  0  0  0  0  0  0  0  0  0
   -0.4924    1.4107    0.7570 H   0  0  0  0  0  0  0  0  0  0  0  0
    0.8779    0.3369    0.9803 H   0  0  0  0  0  0  0  0  0  0  0  0
   -1.9641    4.1309   -2.8074 H   0  0  0  0  0  0  0  0  0  0  0  0
   -2.4531    3.2046   -1.3606 H   0  0  0  0  0  0  0  0  0  0  0  0
    2.9957    0.1612   -0.6031 H   0  0  0  0  0  0  0  0  0  0  0  0
    4.0687    1.3625   -1.2994 H   0  0  0  0  0  0  0  0  0  0  0  0
    3.7158    3.6747    0.2731 H   0  0  0  0  0  0  0  0  0  0  0  0
    2.1786    4.2854   -0.1899 H   0  0  0  0  0  0  0  0  0  0  0  0
    3.3031    3.7074   -1.4412 H   0  0  0  0  0  0  0  0  0  0  0  0
   -0.5906    4.4609   -0.6274 H   0  0  0  0  0  0  0  0  0  0  0  0
    0.3121   -2.1485    1.2689 H   0  0  0  0  0  0  0  0  0  0  0  0
    0.5934   -1.8343   -0.4311 H   0  0  0  0  0  0  0  0  0  0  0  0
   -0.9485   -0.4059    2.5766 H   0  0  0  0  0  0  0  0  0  0  0  0
   -2.1208   -1.5624    1.9537 H   0  0  0  0  0  0  0  0  0  0  0  0
    3.5878    0.8440    1.7053 H   0  0  0  0  0  0  0  0  0  0  0  0
    4.6912    2.0624    1.1013 H   0  0  0  0  0  0  0  0  0  0  0  0
   -3.8246    2.8512   -3.1092 H   0  0  0  0  0  0  0  0  0  0  0  0
    0.0432   -4.5475    0.8919 H   0  0  0  0  0  0  0  0  0  0  0  0
   -2.6327    0.8136    3.8587 H   0  0  0  0  0  0  0  0  0  0  0  0
   -2.4327   -1.7366   -1.2641 H   0  0  0  0  0  0  0  0  0  0  0  0
   -3.1598    0.2439   -0.3956 H   0  0  0  0  0  0  0  0  0  0  0  0
    4.1607   -1.5493    1.4960 H   0  0  0  0  0  0  0  0  0  0  0  0
   -1.4417   -6.3818    0.1624 H   0  0  0  0  0  0  0  0  0  0  0  0
   -4.4629    2.4727    3.8385 H   0  0  0  0  0  0  0  0  0  0  0  0
   -3.9040   -3.5654   -1.9506 H   0  0  0  0  0  0  0  0  0  0  0  0
   -4.9573    1.8946   -0.3902 H   0  0  0  0  0  0  0  0  0  0  0  0
    6.0430   -3.1580    1.3128 H   0  0  0  0  0  0  0  0  0  0  0  0
    8.4847    0.0386   -0.1675 H   0  0  0  0  0  0  0  0  0  0  0  0
    8.2525   -2.3688    0.4674 H   0  0  0  0  0  0  0  0  0  0  0  0
  1 33  1  0  0  0  0
  2 34  1  0  0  0  0
  3 10  1  0  0  0  0
  3 12  1  0  0  0  0
  4 11  1  0  0  0  0
  4 50  1  0  0  0  0
  5 14  1  0  0  0  0
  5 57  1  0  0  0  0
  6  9  1  0  0  0  0
  6 15  1  0  0  0  0
  6 16  1  0  0  0  0
  7 13  1  0  0  0  0
  7 17  1  0  0  0  0
  7 18  1  0  0  0  0
  8 22  1  0  0  0  0
  8 35  2  0  0  0  0
  9 10  1  0  0  0  0
  9 11  1  0  0  0  0
  9 37  1  0  0  0  0
 10 13  1  0  0  0  0
 10 38  1  0  0  0  0
 11 12  1  0  0  0  0
 11 39  1  0  0  0  0
 12 14  1  0  0  0  0
 12 40  1  0  0  0  0
 13 41  1  0  0  0  0
 13 42  1  0  0  0  0
 14 43  1  0  0  0  0
 14 44  1  0  0  0  0
 15 19  1  0  0  0  0
 15 45  1  0  0  0  0
 15 46  1  0  0  0  0
 16 47  1  0  0  0  0
 16 48  1  0  0  0  0
 16 49  1  0  0  0  0
 17 20  1  0  0  0  0
 17 51  1  0  0  0  0
 17 52  1  0  0  0  0
 18 21  1  0  0  0  0
 18 53  1  0  0  0  0
 18 54  1  0  0  0  0
 19 22  1  0  0  0  0
 19 55  1  0  0  0  0
 19 56  1  0  0  0  0
 20 23  2  0  0  0  0
 20 25  1  0  0  0  0
 21 24  2  0  0  0  0
 21 26  1  0  0  0  0
 22 27  2  0  0  0  0
 23 28  1  0  0  0  0
 23 58  1  0  0  0  0
 24 29  1  0  0  0  0
 24 59  1  0  0  0  0
 25 30  2  0  0  0  0
 25 60  1  0  0  0  0
 26 31  2  0  0  0  0
 26 61  1  0  0  0  0
 27 32  1  0  0  0  0
 27 62  1  0  0  0  0
 28 33  2  0  0  0  0
 28 63  1  0  0  0  0
 29 34  2  0  0  0  0
 29 64  1  0  0  0  0
 30 33  1  0  0  0  0
 30 65  1  0  0  0  0
 31 34  1  0  0  0  0
 31 66  1  0  0  0  0
 32 36  2  0  0  0  0
 32 67  1  0  0  0  0
 35 36  1  0  0  0  0
 35 68  1  0  0  0  0
 36 69  1  0  0  0  0
M  END
> <PUBCHEM_COMPOUND_CID>
28961265

> <PUBCHEM_CONFORMER_RMSD>
1.2

> <PUBCHEM_CONFORMER_DIVERSEORDER>
1
40
13
80
54
65
88
20
78
35
61
28
72
71
41
5
24
69
79
39
49
43
60
11
27
22
77
67
18
45
51
23
73
12
30
85
75
14
3
47
76
53
89
57
38
44
42
62
59
2
70
34
68
63
17
83
55
15
58
48
7
36
64
86
16
84
4
9
87
32
74
50
21
81
56
46
25
82
52
66
19
33
10
31
8
37
26
29
6

> <PUBCHEM_MMFF94_PARTIAL_CHARGES>
50
1 -0.19
10 0.28
11 0.28
12 0.28
13 0.27
14 0.28
15 0.27
16 0.27
17 0.41
18 0.41
19 0.14
2 -0.19
20 -0.14
21 -0.14
22 0.17
23 -0.15
24 -0.15
25 -0.15
26 -0.15
27 -0.15
28 -0.15
29 -0.15
3 -0.56
30 -0.15
31 -0.15
32 -0.15
33 0.19
34 0.19
35 0.16
36 -0.15
4 -0.68
5 -0.68
50 0.4
57 0.4
58 0.15
59 0.15
6 -0.81
60 0.15
61 0.15
62 0.15
63 0.15
64 0.15
65 0.15
66 0.15
67 0.15
68 0.15
69 0.15
7 -0.81
8 -0.62
9 0.27

> <PUBCHEM_EFFECTIVE_ROTOR_COUNT>
12

> <PUBCHEM_PHARMACOPHORE_FEATURES>
12
1 3 acceptor
1 4 acceptor
1 4 donor
1 5 acceptor
1 5 donor
1 6 cation
1 7 cation
1 8 acceptor
5 3 9 10 11 12 rings
6 20 23 25 28 30 33 rings
6 21 24 26 29 31 34 rings
6 8 22 27 32 35 36 rings

> <PUBCHEM_HEAVY_ATOM_COUNT>
36

> <PUBCHEM_ATOM_DEF_STEREO_COUNT>
4

> <PUBCHEM_ATOM_UDEF_STEREO_COUNT>
0

> <PUBCHEM_BOND_DEF_STEREO_COUNT>
0

> <PUBCHEM_BOND_UDEF_STEREO_COUNT>
0

> <PUBCHEM_ISOTOPIC_ATOM_COUNT>
0

> <PUBCHEM_COMPONENT_COUNT>
1

> <PUBCHEM_CACTVS_TAUTO_COUNT>
2

> <PUBCHEM_CONFORMER_ID>
01B9E9F100000001

> <PUBCHEM_MMFF94_ENERGY>
102.2351

> <PUBCHEM_FEATURE_SELFOVERLAP>
60.902

> <PUBCHEM_SHAPE_FINGERPRINT>
10010297 198 17316227970699614780
10305334 12 18341894065624403958
10483366 6 18117529947558112991
10622 236 18123463045429948310
11763715 3 17694233565631686763
12107183 9 18410862044851435096
12422481 6 17969236550550646225
12608794 3 18408608041376349717
12633046 712 18130778019291243832
12677640 9 18272090534572951099
12788726 201 17767135563019680847
14068700 675 17619628424484619548
14674994 50 18335411374656404684
14840074 17 18260552173799254450
15219462 58 17484782042459679984
15361156 5 17967821582997700360
15420108 30 18339081480430397163
15815584 197 17462317680148200675
15911013 46 18123183778308488426
15968369 26 16747599740274430830
18365409 1 18201998829340953511
21033648 29 17985575306107800377
21304303 282 18130787872061784359
21703447 108 17624696056814181008
22223350 30 18200592626139402056
255183 313 18336831900650352478
3383291 50 18120631575586487158
3886686 26 18343866640891372936
4017518 198 18271814458523625270
44880168 125 18338230450426535634
5028188 123 18271538602487374284
5171179 24 17329723019935819907
6691757 9 18060431200219662035

> <PUBCHEM_SHAPE_MULTIPOLES>
693.76
13.73
7.25
2.51
29.87
11.28
-0.02
0.69
-7.7
-9.41
3.94
-3.94
-2.3
-3.91

> <PUBCHEM_SHAPE_SELFOVERLAP>
1475.818

> <PUBCHEM_SHAPE_VOLUME>
388

> <PUBCHEM_COORDINATE_TYPE>
2
5
10

$$$$
