11911838
  -OEChem-12032416373D

 63 67  0     1  0  0  0  0  0999 V2000
   -7.4365   -2.5671   -2.3642 F   0  0  0  0  0  0  0  0  0  0  0  0
   -7.6960   -3.5273   -0.4369 F   0  0  0  0  0  0  0  0  0  0  0  0
   -5.9252   -3.9463   -1.6275 F   0  0  0  0  0  0  0  0  0  0  0  0
    0.2391    1.6589    1.8854 O   0  0  0  0  0  0  0  0  0  0  0  0
   -0.3782    4.4738    0.6889 O   0  0  0  0  0  0  0  0  0  0  0  0
   -4.5107    2.0009    2.2021 O   0  0  0  0  0  0  0  0  0  0  0  0
   -2.6820    1.6354    0.8234 N   0  0  0  0  0  0  0  0  0  0  0  0
    1.9804    3.2525   -0.8998 N   0  0  0  0  0  0  0  0  0  0  0  0
    3.2709    1.2945   -0.8138 N   0  0  0  0  0  0  0  0  0  0  0  0
    3.1359    2.5997   -2.8350 N   0  0  0  0  0  0  0  0  0  0  0  0
    5.9058   -3.9419    1.5990 N   0  0  0  0  0  0  0  0  0  0  0  0
   -0.8244    3.1468    0.3642 C   0  0  1  0  0  0  0  0  0  0  0  0
    0.3535    2.2132    0.5639 C   0  0  1  0  0  0  0  0  0  0  0  0
   -1.8445    2.6733    1.3742 C   0  0  2  0  0  0  0  0  0  0  0  0
    1.5604    3.1173    0.4778 C   0  0  2  0  0  0  0  0  0  0  0  0
   -0.9693    2.1383    2.4936 C   0  0  0  0  0  0  0  0  0  0  0  0
    1.0236    4.4392    0.9951 C   0  0  0  0  0  0  0  0  0  0  0  0
   -3.9636    1.3840    1.2919 C   0  0  0  0  0  0  0  0  0  0  0  0
    2.8206    2.3554   -1.5352 C   0  0  0  0  0  0  0  0  0  0  0  0
   -4.6870    0.2636    0.6372 C   0  0  0  0  0  0  0  0  0  0  0  0
    4.0880    0.4404   -1.4641 C   0  0  0  0  0  0  0  0  0  0  0  0
   -4.3644   -0.0681   -0.6624 C   0  0  0  0  0  0  0  0  0  0  0  0
   -5.6593   -0.4081    1.3488 C   0  0  0  0  0  0  0  0  0  0  0  0
    3.9572    1.7054   -3.4233 C   0  0  0  0  0  0  0  0  0  0  0  0
    4.4688    0.5964   -2.7813 C   0  0  0  0  0  0  0  0  0  0  0  0
    4.5533   -0.6790   -0.6806 C   0  0  0  0  0  0  0  0  0  0  0  0
   -5.0448   -1.1188   -1.2781 C   0  0  0  0  0  0  0  0  0  0  0  0
   -6.3395   -1.4589    0.7330 C   0  0  0  0  0  0  0  0  0  0  0  0
   -6.0322   -1.8142   -0.5804 C   0  0  0  0  0  0  0  0  0  0  0  0
    5.7991   -1.2516   -0.9466 C   0  0  0  0  0  0  0  0  0  0  0  0
    3.7584   -1.1947    0.3455 C   0  0  0  0  0  0  0  0  0  0  0  0
   -6.7591   -2.9384   -1.2378 C   0  0  0  0  0  0  0  0  0  0  0  0
    6.2476   -2.3345   -0.1905 C   0  0  0  0  0  0  0  0  0  0  0  0
    4.2071   -2.2775    1.1018 C   0  0  0  0  0  0  0  0  0  0  0  0
    5.4517   -2.8474    0.8337 C   0  0  0  0  0  0  0  0  0  0  0  0
    5.5060   -4.0845    2.9847 C   0  0  0  0  0  0  0  0  0  0  0  0
    6.7893   -4.9304    1.0135 C   0  0  0  0  0  0  0  0  0  0  0  0
   -1.1875    3.1658   -0.6685 H   0  0  0  0  0  0  0  0  0  0  0  0
    0.3546    1.3748   -0.1401 H   0  0  0  0  0  0  0  0  0  0  0  0
   -2.4837    3.4820    1.7449 H   0  0  0  0  0  0  0  0  0  0  0  0
    2.3975    2.7977    1.1091 H   0  0  0  0  0  0  0  0  0  0  0  0
   -0.6880    2.9385    3.1870 H   0  0  0  0  0  0  0  0  0  0  0  0
   -1.4293    1.3298    3.0699 H   0  0  0  0  0  0  0  0  0  0  0  0
    1.1177    4.4991    2.0851 H   0  0  0  0  0  0  0  0  0  0  0  0
    1.5107    5.3179    0.5611 H   0  0  0  0  0  0  0  0  0  0  0  0
   -2.2535    1.0110    0.1480 H   0  0  0  0  0  0  0  0  0  0  0  0
    1.6093    4.0102   -1.4618 H   0  0  0  0  0  0  0  0  0  0  0  0
   -3.6281    0.4695   -1.2506 H   0  0  0  0  0  0  0  0  0  0  0  0
   -5.9069   -0.1473    2.3734 H   0  0  0  0  0  0  0  0  0  0  0  0
    4.1957    1.9089   -4.4617 H   0  0  0  0  0  0  0  0  0  0  0  0
    5.1042   -0.0939   -3.3211 H   0  0  0  0  0  0  0  0  0  0  0  0
   -4.8040   -1.3839   -2.3043 H   0  0  0  0  0  0  0  0  0  0  0  0
   -7.1045   -1.9895    1.2931 H   0  0  0  0  0  0  0  0  0  0  0  0
    6.4627   -0.8664   -1.7162 H   0  0  0  0  0  0  0  0  0  0  0  0
    2.7777   -0.7825    0.5716 H   0  0  0  0  0  0  0  0  0  0  0  0
    7.2289   -2.7441   -0.4130 H   0  0  0  0  0  0  0  0  0  0  0  0
    3.5574   -2.6623    1.8827 H   0  0  0  0  0  0  0  0  0  0  0  0
    6.1804   -4.7596    3.5234 H   0  0  0  0  0  0  0  0  0  0  0  0
    5.5352   -3.1240    3.5116 H   0  0  0  0  0  0  0  0  0  0  0  0
    4.4963   -4.5023    3.0562 H   0  0  0  0  0  0  0  0  0  0  0  0
    7.8219   -4.5664    0.9962 H   0  0  0  0  0  0  0  0  0  0  0  0
    6.7777   -5.8615    1.5911 H   0  0  0  0  0  0  0  0  0  0  0  0
    6.4826   -5.1893   -0.0063 H   0  0  0  0  0  0  0  0  0  0  0  0
  1 32  1  0  0  0  0
  2 32  1  0  0  0  0
  3 32  1  0  0  0  0
  4 13  1  0  0  0  0
  4 16  1  0  0  0  0
  5 12  1  0  0  0  0
  5 17  1  0  0  0  0
  6 18  2  0  0  0  0
  7 14  1  0  0  0  0
  7 18  1  0  0  0  0
  7 46  1  0  0  0  0
  8 15  1  0  0  0  0
  8 19  1  0  0  0  0
  8 47  1  0  0  0  0
  9 19  1  0  0  0  0
  9 21  2  0  0  0  0
 10 19  2  0  0  0  0
 10 24  1  0  0  0  0
 11 35  1  0  0  0  0
 11 36  1  0  0  0  0
 11 37  1  0  0  0  0
 12 13  1  0  0  0  0
 12 14  1  0  0  0  0
 12 38  1  0  0  0  0
 13 15  1  0  0  0  0
 13 39  1  0  0  0  0
 14 16  1  0  0  0  0
 14 40  1  0  0  0  0
 15 17  1  0  0  0  0
 15 41  1  0  0  0  0
 16 42  1  0  0  0  0
 16 43  1  0  0  0  0
 17 44  1  0  0  0  0
 17 45  1  0  0  0  0
 18 20  1  0  0  0  0
 20 22  2  0  0  0  0
 20 23  1  0  0  0  0
 21 25  1  0  0  0  0
 21 26  1  0  0  0  0
 22 27  1  0  0  0  0
 22 48  1  0  0  0  0
 23 28  2  0  0  0  0
 23 49  1  0  0  0  0
 24 25  2  0  0  0  0
 24 50  1  0  0  0  0
 25 51  1  0  0  0  0
 26 30  2  0  0  0  0
 26 31  1  0  0  0  0
 27 29  2  0  0  0  0
 27 52  1  0  0  0  0
 28 29  1  0  0  0  0
 28 53  1  0  0  0  0
 29 32  1  0  0  0  0
 30 33  1  0  0  0  0
 30 54  1  0  0  0  0
 31 34  2  0  0  0  0
 31 55  1  0  0  0  0
 33 35  2  0  0  0  0
 33 56  1  0  0  0  0
 34 35  1  0  0  0  0
 34 57  1  0  0  0  0
 36 58  1  0  0  0  0
 36 59  1  0  0  0  0
 36 60  1  0  0  0  0
 37 61  1  0  0  0  0
 37 62  1  0  0  0  0
 37 63  1  0  0  0  0
M  END
> <PUBCHEM_COMPOUND_CID>
11911838

> <PUBCHEM_CONFORMER_RMSD>
1

> <PUBCHEM_CONFORMER_DIVERSEORDER>
1
53
123
69
79
120
98
134
171
158
131
67
61
102
160
3
87
125
153
21
142
52
140
35
169
126
103
60
68
143
80
94
45
99
16
8
151
113
147
165
150
76
30
124
15
128
59
106
172
145
56
146
101
23
108
139
57
6
7
73
173
96
51
144
152
127
58
71
44
13
164
167
104
105
9
17
93
156
5
26
163
116
115
97
36
117
77
149
122
19
114
75
82
70
12
55
20
88
42
159
48
154
132
78
40
86
24
112
84
11
155
85
136
39
65
135
109
129
107
50
43
34
4
46
166
74
137
41
91
119
62
27
89
130
81
162
49
31
63
54
38
174
28
90
83
141
157
148
161
92
32
118
95
110
22
133
138
18
33
47
64
111
10
170
72
29
168
66
121
25
14
100
2
37

> <PUBCHEM_MMFF94_PARTIAL_CHARGES>
48
1 -0.34
10 -0.62
11 -0.84
12 0.28
13 0.28
14 0.3
15 0.37
16 0.28
17 0.28
18 0.54
19 0.72
2 -0.34
20 0.09
21 0.31
22 -0.15
23 -0.15
24 0.16
25 -0.15
27 -0.15
28 -0.15
29 -0.14
3 -0.34
30 -0.15
31 -0.15
32 1.16
33 -0.15
34 -0.15
35 0.1
36 0.37
37 0.37
4 -0.56
46 0.37
47 0.4
48 0.15
49 0.15
5 -0.56
50 0.15
51 0.15
52 0.15
53 0.15
54 0.15
55 0.15
56 0.15
57 0.15
6 -0.57
7 -0.73
8 -0.87
9 -0.62

> <PUBCHEM_EFFECTIVE_ROTOR_COUNT>
9.2

> <PUBCHEM_PHARMACOPHORE_FEATURES>
13
1 11 cation
1 4 acceptor
1 5 acceptor
1 6 acceptor
1 7 donor
1 8 donor
1 9 acceptor
4 8 9 10 19 cation
5 4 12 13 14 16 rings
5 5 12 13 15 17 rings
6 20 22 23 27 28 29 rings
6 26 30 31 33 34 35 rings
6 9 10 19 21 24 25 rings

> <PUBCHEM_HEAVY_ATOM_COUNT>
37

> <PUBCHEM_ATOM_DEF_STEREO_COUNT>
4

> <PUBCHEM_ATOM_UDEF_STEREO_COUNT>
0

> <PUBCHEM_BOND_DEF_STEREO_COUNT>
0

> <PUBCHEM_BOND_UDEF_STEREO_COUNT>
0

> <PUBCHEM_ISOTOPIC_ATOM_COUNT>
0

> <PUBCHEM_COMPONENT_COUNT>
1

> <PUBCHEM_CACTVS_TAUTO_COUNT>
6

> <PUBCHEM_CONFORMER_ID>
00B5C29E00000001

> <PUBCHEM_MMFF94_ENERGY>
120.635

> <PUBCHEM_FEATURE_SELFOVERLAP>
66.679

> <PUBCHEM_SHAPE_FINGERPRINT>
10622 236 18115876196302024640
11135609 149 18114175324697190844
11135926 11 17099508624728949524
11227150 75 18188476996271153394
11478447 58 18123459737873289015
11497681 19 18118972391730631182
11607047 403 18270105959736342592
11828042 38 17749400303363072203
131258 38 18265888232720398998
14068700 675 18265051341178650448
14340393 91 17677317317577527903
15320294 125 18196943175669808653
15419009 47 17534055268488801197
15968369 26 17898853719217355272
17324776 126 18189893119850783650
19303781 99 17969511411572769818
19315092 285 18334299760095664748
19319366 153 18190756417230334228
19841028 212 17772751813708992567
20156587 161 18117263779660819898
20775438 99 18189051074294655690
208703 8 18272656748521961606
21585483 132 18410853287133997947
21599406 157 17313953064335922619
21792938 131 18271523213213682539
24204213 148 18337390543706708832
25019877 29 14288306684870525000
25025965 108 17172921731952435642
25222932 49 18272376420761117260
4112364 45 9871480828785828779
437795 139 18060700593806608363
50009960 94 18201141196626289298
504843 32 16971116748635011848
57527295 17 18338818786982636272
59025328 239 17604156930810822668
6058803 2 18047220487215669724
6201460 15 18338235938371756098
6636735 143 14692575390922227799
6677587 24 16663754741215196572
6691757 9 17621602709704584544
96874 4 18410573950945200410
9831354 38 18261666086268466211

> <PUBCHEM_SHAPE_MULTIPOLES>
697.11
21.21
6.93
2.85
17.11
1.85
-1.01
35.09
-4.11
-3.81
1.83
-1.77
-0.32
-10.29

> <PUBCHEM_SHAPE_SELFOVERLAP>
1527.183

> <PUBCHEM_SHAPE_VOLUME>
380.2

> <PUBCHEM_COORDINATE_TYPE>
2
5
10

$$$$
