7134477
  -OEChem-12032416153D

 55 56  0     1  0  0  0  0  0999 V2000
    9.0998    0.5608    0.9767 F   0  0  0  0  0  0  0  0  0  0  0  0
    7.7599   -0.7606   -0.1343 F   0  0  0  0  0  0  0  0  0  0  0  0
    8.5168    1.0982   -1.0597 F   0  0  0  0  0  0  0  0  0  0  0  0
   -3.5914   -1.5201    2.1771 O   0  0  0  0  0  0  0  0  0  0  0  0
   -1.4932   -3.7350   -1.1694 O   0  0  0  0  0  0  0  0  0  0  0  0
   -4.3276   -3.7308   -1.4416 O   0  0  0  0  0  0  0  0  0  0  0  0
   -5.0521    0.5465    2.3838 O   0  0  0  0  0  0  0  0  0  0  0  0
    0.8775   -0.9088    1.3144 O   0  0  0  0  0  0  0  0  0  0  0  0
   -4.6744    2.9302   -1.9386 O   0  0  0  0  0  0  0  0  0  0  0  0
    6.9790    1.2498    0.6266 O   0  0  0  0  0  0  0  0  0  0  0  0
   -0.3250   -1.1203   -0.6483 N   0  0  0  0  0  0  0  0  0  0  0  0
   -4.8918    1.1062    0.1300 N   0  0  0  0  0  0  0  0  0  0  0  0
    1.8385   -0.3706   -0.7587 N   0  0  0  0  0  0  0  0  0  0  0  0
   -5.3515    4.5901   -0.5023 N   0  0  0  0  0  0  0  0  0  0  0  0
   -3.7738   -0.8554    0.9324 C   0  0  1  0  0  0  0  0  0  0  0  0
   -1.5482   -1.5994   -0.0426 C   0  0  1  0  0  0  0  0  0  0  0  0
   -2.4265   -0.4101    0.3606 C   0  0  0  0  0  0  0  0  0  0  0  0
   -2.2825   -2.5555   -0.9919 C   0  0  2  0  0  0  0  0  0  0  0  0
   -4.5031   -1.7899   -0.0306 C   0  0  0  0  0  0  0  0  0  0  0  0
   -3.6411   -2.9872   -0.4343 C   0  0  1  0  0  0  0  0  0  0  0  0
   -4.6328    0.3337    1.2492 C   0  0  0  0  0  0  0  0  0  0  0  0
    0.8178   -0.8053    0.0915 C   0  0  0  0  0  0  0  0  0  0  0  0
   -5.7135    2.2945    0.1625 C   0  0  2  0  0  0  0  0  0  0  0  0
   -7.1714    1.9598   -0.1102 C   0  0  0  0  0  0  0  0  0  0  0  0
   -5.1762    3.2728   -0.8706 C   0  0  0  0  0  0  0  0  0  0  0  0
    3.1455    0.0399   -0.4068 C   0  0  0  0  0  0  0  0  0  0  0  0
    4.0394    0.4466   -1.3974 C   0  0  0  0  0  0  0  0  0  0  0  0
    3.5403    0.0392    0.9310 C   0  0  0  0  0  0  0  0  0  0  0  0
    5.3279    0.8525   -1.0503 C   0  0  0  0  0  0  0  0  0  0  0  0
    4.8288    0.4451    1.2783 C   0  0  0  0  0  0  0  0  0  0  0  0
    5.7225    0.8517    0.2876 C   0  0  0  0  0  0  0  0  0  0  0  0
    8.0825    0.5316    0.0860 C   0  0  0  0  0  0  0  0  0  0  0  0
   -1.2637   -2.1509    0.8633 H   0  0  0  0  0  0  0  0  0  0  0  0
   -1.8909    0.1900    1.1091 H   0  0  0  0  0  0  0  0  0  0  0  0
   -2.5507    0.2404   -0.5141 H   0  0  0  0  0  0  0  0  0  0  0  0
   -2.4055   -2.1070   -1.9853 H   0  0  0  0  0  0  0  0  0  0  0  0
   -4.8213   -1.2714   -0.9440 H   0  0  0  0  0  0  0  0  0  0  0  0
   -5.4311   -2.1643    0.4228 H   0  0  0  0  0  0  0  0  0  0  0  0
   -3.5016   -3.6619    0.4191 H   0  0  0  0  0  0  0  0  0  0  0  0
   -0.3205   -0.9348   -1.6467 H   0  0  0  0  0  0  0  0  0  0  0  0
   -4.4494   -1.8768    2.4644 H   0  0  0  0  0  0  0  0  0  0  0  0
   -1.3567   -4.1408   -0.2963 H   0  0  0  0  0  0  0  0  0  0  0  0
   -5.1819   -4.0085   -1.0692 H   0  0  0  0  0  0  0  0  0  0  0  0
   -4.5296    0.8246   -0.7752 H   0  0  0  0  0  0  0  0  0  0  0  0
   -5.6292    2.7396    1.1612 H   0  0  0  0  0  0  0  0  0  0  0  0
    1.6247   -0.3440   -1.7524 H   0  0  0  0  0  0  0  0  0  0  0  0
   -7.2943    1.5018   -1.0984 H   0  0  0  0  0  0  0  0  0  0  0  0
   -7.5588    1.2546    0.6328 H   0  0  0  0  0  0  0  0  0  0  0  0
   -7.7929    2.8611   -0.0837 H   0  0  0  0  0  0  0  0  0  0  0  0
   -5.0475    5.3448   -1.1085 H   0  0  0  0  0  0  0  0  0  0  0  0
   -5.7864    4.8583    0.3747 H   0  0  0  0  0  0  0  0  0  0  0  0
    3.7438    0.4535   -2.4435 H   0  0  0  0  0  0  0  0  0  0  0  0
    2.9065   -0.2612    1.7533 H   0  0  0  0  0  0  0  0  0  0  0  0
    6.0115    1.1738   -1.8313 H   0  0  0  0  0  0  0  0  0  0  0  0
    5.1319    0.4430    2.3219 H   0  0  0  0  0  0  0  0  0  0  0  0
  1 32  1  0  0  0  0
  2 32  1  0  0  0  0
  3 32  1  0  0  0  0
  4 15  1  0  0  0  0
  4 41  1  0  0  0  0
  5 18  1  0  0  0  0
  5 42  1  0  0  0  0
  6 20  1  0  0  0  0
  6 43  1  0  0  0  0
  7 21  2  0  0  0  0
  8 22  2  0  0  0  0
  9 25  2  0  0  0  0
 10 31  1  0  0  0  0
 10 32  1  0  0  0  0
 11 16  1  0  0  0  0
 11 22  1  0  0  0  0
 11 40  1  0  0  0  0
 12 21  1  0  0  0  0
 12 23  1  0  0  0  0
 12 44  1  0  0  0  0
 13 22  1  0  0  0  0
 13 26  1  0  0  0  0
 13 46  1  0  0  0  0
 14 25  1  0  0  0  0
 14 50  1  0  0  0  0
 14 51  1  0  0  0  0
 15 17  1  0  0  0  0
 15 19  1  0  0  0  0
 15 21  1  0  0  0  0
 16 17  1  0  0  0  0
 16 18  1  0  0  0  0
 16 33  1  0  0  0  0
 17 34  1  0  0  0  0
 17 35  1  0  0  0  0
 18 20  1  0  0  0  0
 18 36  1  0  0  0  0
 19 20  1  0  0  0  0
 19 37  1  0  0  0  0
 19 38  1  0  0  0  0
 20 39  1  0  0  0  0
 23 24  1  0  0  0  0
 23 25  1  0  0  0  0
 23 45  1  0  0  0  0
 24 47  1  0  0  0  0
 24 48  1  0  0  0  0
 24 49  1  0  0  0  0
 26 27  2  0  0  0  0
 26 28  1  0  0  0  0
 27 29  1  0  0  0  0
 27 52  1  0  0  0  0
 28 30  2  0  0  0  0
 28 53  1  0  0  0  0
 29 31  2  0  0  0  0
 29 54  1  0  0  0  0
 30 31  1  0  0  0  0
 30 55  1  0  0  0  0
M  END
> <PUBCHEM_COMPOUND_CID>
7134477

> <PUBCHEM_CONFORMER_RMSD>
1

> <PUBCHEM_CONFORMER_DIVERSEORDER>
1
45
14
34
23
66
52
50
57
11
44
26
73
58
54
5
24
35
76
49
72
15
68
25
46
65
64
18
42
51
8
33
28
13
70
3
63
16
53
29
71
43
6
31
69
9
30
61
74
39
67
62
27
7
59
4
60
48
32
37
55
47
2
36
22
38
75
21
56
12
19
41
40
10
20
17

> <PUBCHEM_MMFF94_PARTIAL_CHARGES>
41
1 -0.34
10 -0.36
11 -0.73
12 -0.73
13 -0.55
14 -0.8
15 0.34
16 0.3
18 0.28
2 -0.34
20 0.28
21 0.57
22 0.69
23 0.36
25 0.57
26 0.12
27 -0.15
28 -0.15
29 -0.15
3 -0.34
30 -0.15
31 0.08
32 1.3
4 -0.68
40 0.37
41 0.4
42 0.4
43 0.4
44 0.37
46 0.37
5 -0.68
50 0.37
51 0.37
52 0.15
53 0.15
54 0.15
55 0.15
6 -0.68
7 -0.57
8 -0.57
9 -0.57

> <PUBCHEM_EFFECTIVE_ROTOR_COUNT>
11.2

> <PUBCHEM_PHARMACOPHORE_FEATURES>
16
1 10 acceptor
1 11 donor
1 12 donor
1 13 donor
1 14 donor
1 4 acceptor
1 4 donor
1 5 acceptor
1 5 donor
1 6 acceptor
1 6 donor
1 7 acceptor
1 8 acceptor
1 9 acceptor
6 15 16 17 18 19 20 rings
6 26 27 28 29 30 31 rings

> <PUBCHEM_HEAVY_ATOM_COUNT>
32

> <PUBCHEM_ATOM_DEF_STEREO_COUNT>
5

> <PUBCHEM_ATOM_UDEF_STEREO_COUNT>
0

> <PUBCHEM_BOND_DEF_STEREO_COUNT>
0

> <PUBCHEM_BOND_UDEF_STEREO_COUNT>
0

> <PUBCHEM_ISOTOPIC_ATOM_COUNT>
0

> <PUBCHEM_COMPONENT_COUNT>
1

> <PUBCHEM_CACTVS_TAUTO_COUNT>
12

> <PUBCHEM_CONFORMER_ID>
006CDD0D00000001

> <PUBCHEM_MMFF94_ENERGY>
85.4018

> <PUBCHEM_FEATURE_SELFOVERLAP>
81.283

> <PUBCHEM_SHAPE_FINGERPRINT>
100830 39 18342175574437918553
10165383 225 18131077022429916067
10411042 1 17908982459621025543
105312 117 18343019965688534535
10554248 39 16774087267704306844
13911987 19 18129941179605354153
14950920 106 16733562631625662249
15021287 119 17822013159208985972
15183329 4 17703794704383616258
15419008 91 17774991437200372336
15461852 350 18131629010819604863
15513586 35 17902256707895758129
15604295 49 18339637962628138648
15803439 3 17059478648781840085
16120349 189 18262508183942975501
16992828 155 18260541204664381709
17093844 174 18272652384983141418
20771845 165 18268998575132312631
20982279 24 14057546901662136808
21033648 144 18060143102909711207
21033648 29 18337964385158824253
21150785 3 12967129411071686584
21756936 100 18113338622181008459
21859007 373 18263930925691662158
21927370 108 18121786286583390363
22288116 15 12895067440246221940
2260408 40 16733268950309912874
23081809 10 18187931750489014974
23522609 53 16661514886116329188
23523766 6 17335046246086554703
23559900 14 17346606287606305538
23569914 2 17341201092433860568
4015057 19 15410889712380785274
4330586 98 13469532591783038117
44249763 50 18201144542321657265
44802255 64 18272933821579628599
4938544 92 18410291428149086647
5372103 7 17387675126306526877
54039377 194 11671771694436445589
57527295 17 15554172454923611251
6086070 43 17489576879539898058
6327066 14 18337668608474131469
6697151 62 16558196991274690150
9896288 288 18261398888111382211
999808 66 11097857384565010960

> <PUBCHEM_SHAPE_MULTIPOLES>
575.71
24.08
3.92
1.53
47.5
0.53
0.34
16.7
1.09
-11.48
-2.17
-1.01
-0.06
0.48

> <PUBCHEM_SHAPE_SELFOVERLAP>
1206.218

> <PUBCHEM_SHAPE_VOLUME>
323.9

> <PUBCHEM_COORDINATE_TYPE>
2
5
10

$$$$
