51138043
  -OEChem-12032416323D

 67 70  0     1  0  0  0  0  0999 V2000
   -2.9153    2.2970   -0.6701 O   0  0  0  0  0  0  0  0  0  0  0  0
   -1.5815   -0.4572   -0.3220 N   0  0  0  0  0  0  0  0  0  0  0  0
    3.1035    0.8931    0.9937 N   0  0  0  0  0  0  0  0  0  0  0  0
   -3.8976    1.0393    1.0247 N   0  0  0  0  0  0  0  0  0  0  0  0
   -7.4348    1.3657   -0.0946 N   0  0  0  0  0  0  0  0  0  0  0  0
    7.1028    0.6939   -2.0919 N   0  0  0  0  0  0  0  0  0  0  0  0
   -0.9789   -1.6513    0.2855 C   0  0  2  0  0  0  0  0  0  0  0  0
    0.5161   -1.5567    0.6069 C   0  0  0  0  0  0  0  0  0  0  0  0
    1.2635   -0.3461    0.6844 C   0  0  0  0  0  0  0  0  0  0  0  0
   -1.5769    0.7253    0.5271 C   0  0  1  0  0  0  0  0  0  0  0  0
   -1.3003   -2.7922   -0.6967 C   0  0  0  0  0  0  0  0  0  0  0  0
    0.9340    1.0445    0.5250 C   0  0  0  0  0  0  0  0  0  0  0  0
   -0.3965    1.6407    0.2078 C   0  0  0  0  0  0  0  0  0  0  0  0
    2.6260   -0.3961    1.0015 C   0  0  0  0  0  0  0  0  0  0  0  0
   -2.7519   -3.2720   -0.6019 C   0  0  0  0  0  0  0  0  0  0  0  0
    2.0947    1.7669    0.7145 C   0  0  0  0  0  0  0  0  0  0  0  0
    1.2169   -2.7461    0.9317 C   0  0  0  0  0  0  0  0  0  0  0  0
   -2.8536    1.4421    0.2094 C   0  0  0  0  0  0  0  0  0  0  0  0
    3.3091   -1.5828    1.2727 C   0  0  0  0  0  0  0  0  0  0  0  0
    4.4704    1.2870    1.2608 C   0  0  0  0  0  0  0  0  0  0  0  0
    2.5747   -2.7613    1.2450 C   0  0  0  0  0  0  0  0  0  0  0  0
   -2.9619   -4.4387   -1.5700 C   0  0  0  0  0  0  0  0  0  0  0  0
   -3.7601   -2.1624   -0.9036 C   0  0  0  0  0  0  0  0  0  0  0  0
    5.3930    1.0787    0.0858 C   0  0  0  0  0  0  0  0  0  0  0  0
   -5.2290    1.5939    0.9364 C   0  0  0  0  0  0  0  0  0  0  0  0
   -6.0896    0.8081   -0.0420 C   0  0  0  0  0  0  0  0  0  0  0  0
    6.5249    0.2822    0.2192 C   0  0  0  0  0  0  0  0  0  0  0  0
    5.1151    1.6830   -1.1354 C   0  0  0  0  0  0  0  0  0  0  0  0
    7.3402    0.1229   -0.8896 C   0  0  0  0  0  0  0  0  0  0  0  0
    5.9934    1.4609   -2.1837 C   0  0  0  0  0  0  0  0  0  0  0  0
   -7.4641    2.5653   -0.9338 C   0  0  0  0  0  0  0  0  0  0  0  0
   -8.3863    0.3725   -0.5967 C   0  0  0  0  0  0  0  0  0  0  0  0
   -1.4836   -1.8602    1.2388 H   0  0  0  0  0  0  0  0  0  0  0  0
   -1.5713    0.4649    1.5941 H   0  0  0  0  0  0  0  0  0  0  0  0
   -1.0628   -2.4902   -1.7276 H   0  0  0  0  0  0  0  0  0  0  0  0
   -0.6737   -3.6715   -0.5222 H   0  0  0  0  0  0  0  0  0  0  0  0
   -0.3953    1.9262   -0.8536 H   0  0  0  0  0  0  0  0  0  0  0  0
   -0.5084    2.5771    0.7719 H   0  0  0  0  0  0  0  0  0  0  0  0
   -1.1630   -0.2603   -1.2304 H   0  0  0  0  0  0  0  0  0  0  0  0
   -2.9424   -3.6446    0.4127 H   0  0  0  0  0  0  0  0  0  0  0  0
    2.2712    2.8340    0.6739 H   0  0  0  0  0  0  0  0  0  0  0  0
    0.6959   -3.6996    0.9793 H   0  0  0  0  0  0  0  0  0  0  0  0
    4.3638   -1.5995    1.5231 H   0  0  0  0  0  0  0  0  0  0  0  0
    4.8072    0.7325    2.1449 H   0  0  0  0  0  0  0  0  0  0  0  0
    4.4769    2.3479    1.5405 H   0  0  0  0  0  0  0  0  0  0  0  0
    3.0616   -3.7038    1.4813 H   0  0  0  0  0  0  0  0  0  0  0  0
   -2.8013   -4.1285   -2.6083 H   0  0  0  0  0  0  0  0  0  0  0  0
   -3.9803   -4.8337   -1.4890 H   0  0  0  0  0  0  0  0  0  0  0  0
   -2.2714   -5.2599   -1.3499 H   0  0  0  0  0  0  0  0  0  0  0  0
   -4.7603   -2.5876   -1.0502 H   0  0  0  0  0  0  0  0  0  0  0  0
   -3.8565   -1.4750   -0.0621 H   0  0  0  0  0  0  0  0  0  0  0  0
   -3.5094   -1.6111   -1.8155 H   0  0  0  0  0  0  0  0  0  0  0  0
   -3.7401    0.3092    1.7132 H   0  0  0  0  0  0  0  0  0  0  0  0
   -5.1356    2.6450    0.6461 H   0  0  0  0  0  0  0  0  0  0  0  0
   -5.6569    1.5583    1.9446 H   0  0  0  0  0  0  0  0  0  0  0  0
   -6.1262   -0.2279    0.3223 H   0  0  0  0  0  0  0  0  0  0  0  0
   -5.6239    0.7617   -1.0355 H   0  0  0  0  0  0  0  0  0  0  0  0
    6.7735   -0.2045    1.1560 H   0  0  0  0  0  0  0  0  0  0  0  0
    4.2492    2.3193   -1.2796 H   0  0  0  0  0  0  0  0  0  0  0  0
    8.2352   -0.4884   -0.8377 H   0  0  0  0  0  0  0  0  0  0  0  0
    5.8229    1.9113   -3.1560 H   0  0  0  0  0  0  0  0  0  0  0  0
   -8.4787    2.9793   -0.9682 H   0  0  0  0  0  0  0  0  0  0  0  0
   -6.8298    3.3598   -0.5295 H   0  0  0  0  0  0  0  0  0  0  0  0
   -7.1482    2.3594   -1.9632 H   0  0  0  0  0  0  0  0  0  0  0  0
   -9.4012    0.7852   -0.6136 H   0  0  0  0  0  0  0  0  0  0  0  0
   -8.1338    0.0340   -1.6082 H   0  0  0  0  0  0  0  0  0  0  0  0
   -8.4172   -0.5015    0.0636 H   0  0  0  0  0  0  0  0  0  0  0  0
  1 18  2  0  0  0  0
  2  7  1  0  0  0  0
  2 10  1  0  0  0  0
  2 39  1  0  0  0  0
  3 14  1  0  0  0  0
  3 16  1  0  0  0  0
  3 20  1  0  0  0  0
  4 18  1  0  0  0  0
  4 25  1  0  0  0  0
  4 53  1  0  0  0  0
  5 26  1  0  0  0  0
  5 31  1  0  0  0  0
  5 32  1  0  0  0  0
  6 29  2  0  0  0  0
  6 30  1  0  0  0  0
  7  8  1  0  0  0  0
  7 11  1  0  0  0  0
  7 33  1  0  0  0  0
  8  9  2  0  0  0  0
  8 17  1  0  0  0  0
  9 12  1  0  0  0  0
  9 14  1  0  0  0  0
 10 13  1  0  0  0  0
 10 18  1  0  0  0  0
 10 34  1  0  0  0  0
 11 15  1  0  0  0  0
 11 35  1  0  0  0  0
 11 36  1  0  0  0  0
 12 13  1  0  0  0  0
 12 16  2  0  0  0  0
 13 37  1  0  0  0  0
 13 38  1  0  0  0  0
 14 19  2  0  0  0  0
 15 22  1  0  0  0  0
 15 23  1  0  0  0  0
 15 40  1  0  0  0  0
 16 41  1  0  0  0  0
 17 21  2  0  0  0  0
 17 42  1  0  0  0  0
 19 21  1  0  0  0  0
 19 43  1  0  0  0  0
 20 24  1  0  0  0  0
 20 44  1  0  0  0  0
 20 45  1  0  0  0  0
 21 46  1  0  0  0  0
 22 47  1  0  0  0  0
 22 48  1  0  0  0  0
 22 49  1  0  0  0  0
 23 50  1  0  0  0  0
 23 51  1  0  0  0  0
 23 52  1  0  0  0  0
 24 27  2  0  0  0  0
 24 28  1  0  0  0  0
 25 26  1  0  0  0  0
 25 54  1  0  0  0  0
 25 55  1  0  0  0  0
 26 56  1  0  0  0  0
 26 57  1  0  0  0  0
 27 29  1  0  0  0  0
 27 58  1  0  0  0  0
 28 30  2  0  0  0  0
 28 59  1  0  0  0  0
 29 60  1  0  0  0  0
 30 61  1  0  0  0  0
 31 62  1  0  0  0  0
 31 63  1  0  0  0  0
 31 64  1  0  0  0  0
 32 65  1  0  0  0  0
 32 66  1  0  0  0  0
 32 67  1  0  0  0  0
M  END
> <PUBCHEM_COMPOUND_CID>
51138043

> <PUBCHEM_CONFORMER_RMSD>
1.2

> <PUBCHEM_CONFORMER_DIVERSEORDER>
1
47
24
32
18
56
66
48
4
58
10
79
54
49
82
12
45
20
52
19
50
39
29
22
63
16
35
86
7
30
72
42
13
70
51
75
71
11
61
33
83
62
36
38
8
55
23
73
28
81
37
6
67
65
2
25
77
59
84
3
15
68
31
76
14
27
9
26
44
64
21
69
34
85
43
41
17
46
74
78
57
40
80
60
5
53

> <PUBCHEM_MMFF94_PARTIAL_CHARGES>
37
1 -0.57
10 0.33
12 -0.18
13 0.18
14 -0.15
16 -0.3
17 -0.15
18 0.57
19 -0.15
2 -0.9
20 0.4
21 -0.15
24 -0.14
25 0.3
26 0.27
27 -0.15
28 -0.15
29 0.16
3 0.05
30 0.16
31 0.27
32 0.27
39 0.36
4 -0.73
41 0.15
42 0.15
43 0.15
46 0.15
5 -0.81
53 0.37
58 0.15
59 0.15
6 -0.62
60 0.15
61 0.15
7 0.41
8 -0.14

> <PUBCHEM_EFFECTIVE_ROTOR_COUNT>
9.8

> <PUBCHEM_PHARMACOPHORE_FEATURES>
12
1 1 acceptor
1 2 cation
1 2 donor
1 3 cation
1 4 donor
1 5 cation
1 6 acceptor
3 15 22 23 hydrophobe
5 3 9 12 14 16 rings
6 6 24 27 28 29 30 rings
6 8 9 14 17 19 21 rings
7 2 7 8 9 10 12 13 rings

> <PUBCHEM_HEAVY_ATOM_COUNT>
32

> <PUBCHEM_ATOM_DEF_STEREO_COUNT>
2

> <PUBCHEM_ATOM_UDEF_STEREO_COUNT>
0

> <PUBCHEM_BOND_DEF_STEREO_COUNT>
0

> <PUBCHEM_BOND_UDEF_STEREO_COUNT>
0

> <PUBCHEM_ISOTOPIC_ATOM_COUNT>
0

> <PUBCHEM_COMPONENT_COUNT>
1

> <PUBCHEM_CACTVS_TAUTO_COUNT>
2

> <PUBCHEM_CONFORMER_ID>
030C4DFB00000001

> <PUBCHEM_MMFF94_ENERGY>
74.7339

> <PUBCHEM_FEATURE_SELFOVERLAP>
61.027

> <PUBCHEM_SHAPE_FINGERPRINT>
10190108 129 18191603045152031275
11578080 2 13334996318979895348
12954195 1 18200881772217657874
13540713 4 17701527639876385656
13540713 5 18263905744346794242
13782708 43 16844732087462389446
14294032 229 18260823770320153045
1454969 45 18259705588532636477
14790565 3 18334862748893363976
14840074 17 17967813859807973005
15131766 46 16299810826449439332
15183329 4 17918001555559616488
15629462 23 16200167473291160147
16752209 62 18264205984699505770
19319366 153 18186800236459049690
21583282 1 18114193998950736878
22393880 68 18271239521553078074
23576562 1 18191030195109205349
244849 19 16772940558263859442
25147074 1 18334282176721321618
350125 39 18410847755284095099
3610482 184 18115888437175090140
45377200 153 16773220908433645719
5486654 2 18342736304558016137
563151 40 18410019852792912355
59755656 215 18131074822494036996
59755656 520 18342737416706398493

> <PUBCHEM_SHAPE_MULTIPOLES>
627.77
19.68
3.89
1.49
10.23
4.37
-0.52
-14.27
-8.48
4.52
-1.02
-1.99
0.11
-2.25

> <PUBCHEM_SHAPE_SELFOVERLAP>
1333.535

> <PUBCHEM_SHAPE_VOLUME>
350.7

> <PUBCHEM_COORDINATE_TYPE>
2
5
10

$$$$
