11882546
  -OEChem-12032416253D

 57 58  0     1  0  0  0  0  0999 V2000
   -0.5318   -1.2062   -2.0306 O   0  0  0  0  0  0  0  0  0  0  0  0
    0.7133   -3.4740    0.5559 O   0  0  0  0  0  0  0  0  0  0  0  0
    2.3614    1.1627    1.9980 O   0  0  0  0  0  0  0  0  0  0  0  0
   -3.7218   -1.5675    0.7475 O   0  0  0  0  0  0  0  0  0  0  0  0
    3.7656    2.9641   -1.2800 O   0  0  0  0  0  0  0  0  0  0  0  0
    7.9741   -2.2470    0.2912 O   0  0  0  0  0  0  0  0  0  0  0  0
    8.3456   -0.4845   -1.0917 O   0  0  0  0  0  0  0  0  0  0  0  0
   -2.0686   -0.1324    0.0041 N   0  0  0  0  0  0  0  0  0  0  0  0
    3.5964    0.6252    0.0952 N   0  0  0  0  0  0  0  0  0  0  0  0
   -4.2640    0.5096   -0.2025 N   0  0  0  0  0  0  0  0  0  0  0  0
    4.9540    3.8762    0.4612 N   0  0  0  0  0  0  0  0  0  0  0  0
   -0.5802   -1.9305   -0.7994 C   0  0  1  0  0  0  0  0  0  0  0  0
    0.7825   -2.5938   -0.5641 C   0  0  1  0  0  0  0  0  0  0  0  0
   -0.9483   -0.9727    0.3499 C   0  0  1  0  0  0  0  0  0  0  0  0
    1.9014   -1.5591   -0.3537 C   0  0  0  0  0  0  0  0  0  0  0  0
    1.4693   -0.3706    0.4573 C   0  0  0  0  0  0  0  0  0  0  0  0
    0.1973   -0.1004    0.7870 C   0  0  0  0  0  0  0  0  0  0  0  0
    2.5039    0.5480    0.9415 C   0  0  0  0  0  0  0  0  0  0  0  0
    4.7417    1.4664    0.3591 C   0  0  1  0  0  0  0  0  0  0  0  0
   -3.4000   -0.4990    0.2331 C   0  0  0  0  0  0  0  0  0  0  0  0
    6.0110    0.8683   -0.2541 C   0  0  0  0  0  0  0  0  0  0  0  0
    6.3867   -0.4838    0.3551 C   0  0  0  0  0  0  0  0  0  0  0  0
    4.4160    2.8234   -0.2465 C   0  0  0  0  0  0  0  0  0  0  0  0
   -5.6773    0.5251   -0.1491 C   0  0  0  0  0  0  0  0  0  0  0  0
    7.6612   -1.0368   -0.2417 C   0  0  0  0  0  0  0  0  0  0  0  0
   -6.3622    1.6262   -0.6368 C   0  0  0  0  0  0  0  0  0  0  0  0
   -6.3478   -0.5611    0.3896 C   0  0  0  0  0  0  0  0  0  0  0  0
   -7.7560    1.6417   -0.5840 C   0  0  0  0  0  0  0  0  0  0  0  0
   -7.7416   -0.5454    0.4421 C   0  0  0  0  0  0  0  0  0  0  0  0
   -8.4457    0.5560   -0.0447 C   0  0  0  0  0  0  0  0  0  0  0  0
   -9.9360    0.5722    0.0110 C   0  0  0  0  0  0  0  0  0  0  0  0
   -1.3672   -2.6883   -0.8953 H   0  0  0  0  0  0  0  0  0  0  0  0
    1.0542   -3.2078   -1.4315 H   0  0  0  0  0  0  0  0  0  0  0  0
   -1.2367   -1.5737    1.2223 H   0  0  0  0  0  0  0  0  0  0  0  0
    2.7575   -2.0479    0.1271 H   0  0  0  0  0  0  0  0  0  0  0  0
    2.2132   -1.2144   -1.3471 H   0  0  0  0  0  0  0  0  0  0  0  0
   -0.0477    0.7631    1.4014 H   0  0  0  0  0  0  0  0  0  0  0  0
   -1.8885    0.7442   -0.4767 H   0  0  0  0  0  0  0  0  0  0  0  0
   -0.3254   -1.8424   -2.7362 H   0  0  0  0  0  0  0  0  0  0  0  0
    0.0109   -4.1219    0.3762 H   0  0  0  0  0  0  0  0  0  0  0  0
    4.8574    1.5703    1.4447 H   0  0  0  0  0  0  0  0  0  0  0  0
    3.5838    0.1562   -0.8036 H   0  0  0  0  0  0  0  0  0  0  0  0
    6.8427    1.5722   -0.1189 H   0  0  0  0  0  0  0  0  0  0  0  0
    5.8872    0.7574   -1.3401 H   0  0  0  0  0  0  0  0  0  0  0  0
    5.5906   -1.2145    0.1762 H   0  0  0  0  0  0  0  0  0  0  0  0
    6.5364   -0.3745    1.4348 H   0  0  0  0  0  0  0  0  0  0  0  0
   -3.8316    1.3360   -0.6078 H   0  0  0  0  0  0  0  0  0  0  0  0
    5.5042    3.7422    1.3035 H   0  0  0  0  0  0  0  0  0  0  0  0
    4.8166    4.8337    0.1553 H   0  0  0  0  0  0  0  0  0  0  0  0
   -5.8347    2.4772   -1.0585 H   0  0  0  0  0  0  0  0  0  0  0  0
   -5.8761   -1.4477    0.7863 H   0  0  0  0  0  0  0  0  0  0  0  0
   -8.2932    2.5062   -0.9649 H   0  0  0  0  0  0  0  0  0  0  0  0
   -8.2690   -1.3960    0.8661 H   0  0  0  0  0  0  0  0  0  0  0  0
    8.8018   -2.6108   -0.0894 H   0  0  0  0  0  0  0  0  0  0  0  0
  -10.3455   -0.4400   -0.0759 H   0  0  0  0  0  0  0  0  0  0  0  0
  -10.2717    1.0066    0.9579 H   0  0  0  0  0  0  0  0  0  0  0  0
  -10.3561    1.1592   -0.8128 H   0  0  0  0  0  0  0  0  0  0  0  0
  1 12  1  0  0  0  0
  1 39  1  0  0  0  0
  2 13  1  0  0  0  0
  2 40  1  0  0  0  0
  3 18  2  0  0  0  0
  4 20  2  0  0  0  0
  5 23  2  0  0  0  0
  6 25  1  0  0  0  0
  6 54  1  0  0  0  0
  7 25  2  0  0  0  0
  8 14  1  0  0  0  0
  8 20  1  0  0  0  0
  8 38  1  0  0  0  0
  9 18  1  0  0  0  0
  9 19  1  0  0  0  0
  9 42  1  0  0  0  0
 10 20  1  0  0  0  0
 10 24  1  0  0  0  0
 10 47  1  0  0  0  0
 11 23  1  0  0  0  0
 11 48  1  0  0  0  0
 11 49  1  0  0  0  0
 12 13  1  0  0  0  0
 12 14  1  0  0  0  0
 12 32  1  0  0  0  0
 13 15  1  0  0  0  0
 13 33  1  0  0  0  0
 14 17  1  0  0  0  0
 14 34  1  0  0  0  0
 15 16  1  0  0  0  0
 15 35  1  0  0  0  0
 15 36  1  0  0  0  0
 16 17  2  0  0  0  0
 16 18  1  0  0  0  0
 17 37  1  0  0  0  0
 19 21  1  0  0  0  0
 19 23  1  0  0  0  0
 19 41  1  0  0  0  0
 21 22  1  0  0  0  0
 21 43  1  0  0  0  0
 21 44  1  0  0  0  0
 22 25  1  0  0  0  0
 22 45  1  0  0  0  0
 22 46  1  0  0  0  0
 24 26  2  0  0  0  0
 24 27  1  0  0  0  0
 26 28  1  0  0  0  0
 26 50  1  0  0  0  0
 27 29  2  0  0  0  0
 27 51  1  0  0  0  0
 28 30  2  0  0  0  0
 28 52  1  0  0  0  0
 29 30  1  0  0  0  0
 29 53  1  0  0  0  0
 30 31  1  0  0  0  0
 31 55  1  0  0  0  0
 31 56  1  0  0  0  0
 31 57  1  0  0  0  0
M  END
> <PUBCHEM_COMPOUND_CID>
11882546

> <PUBCHEM_CONFORMER_RMSD>
1

> <PUBCHEM_CONFORMER_DIVERSEORDER>
1
83
53
50
31
59
61
101
121
36
68
72
129
90
70
21
14
79
9
63
23
41
80
94
64
67
102
26
87
7
85
124
74
123
34
120
10
81
42
125
39
114
86
119
51
45
104
112
30
37
33
3
13
71
109
97
57
111
5
12
65
127
91
2
106
130
66
110
122
117
93
99
105
113
78
19
17
95
40
60
29
98
92
49
6
28
75
24
131
20
48
84
16
128
96
18
8
32
35
11
54
107
116
46
108
89
43
88
76
55
132
38
22
115
58
47
52
56
15
27
62
77
82
69
126
100
103
25
133
44
4
118
73

> <PUBCHEM_MMFF94_PARTIAL_CHARGES>
43
1 -0.68
10 -0.55
11 -0.8
12 0.28
13 0.28
14 0.44
15 0.14
16 -0.12
17 -0.29
18 0.62
19 0.36
2 -0.68
20 0.69
22 0.06
23 0.57
24 0.12
25 0.66
26 -0.15
27 -0.15
28 -0.15
29 -0.15
3 -0.57
30 -0.14
31 0.14
37 0.15
38 0.37
39 0.4
4 -0.57
40 0.4
42 0.37
47 0.37
48 0.37
49 0.37
5 -0.57
50 0.15
51 0.15
52 0.15
53 0.15
54 0.5
6 -0.65
7 -0.57
8 -0.73
9 -0.73

> <PUBCHEM_EFFECTIVE_ROTOR_COUNT>
11.8

> <PUBCHEM_PHARMACOPHORE_FEATURES>
16
1 1 acceptor
1 1 donor
1 10 donor
1 11 donor
1 2 acceptor
1 2 donor
1 3 acceptor
1 4 acceptor
1 5 acceptor
1 6 acceptor
1 7 acceptor
1 8 donor
1 9 donor
3 6 7 25 anion
6 12 13 14 15 16 17 rings
6 24 26 27 28 29 30 rings

> <PUBCHEM_HEAVY_ATOM_COUNT>
31

> <PUBCHEM_ATOM_DEF_STEREO_COUNT>
4

> <PUBCHEM_ATOM_UDEF_STEREO_COUNT>
0

> <PUBCHEM_BOND_DEF_STEREO_COUNT>
0

> <PUBCHEM_BOND_UDEF_STEREO_COUNT>
0

> <PUBCHEM_ISOTOPIC_ATOM_COUNT>
0

> <PUBCHEM_COMPONENT_COUNT>
1

> <PUBCHEM_CACTVS_TAUTO_COUNT>
12

> <PUBCHEM_CONFORMER_ID>
00B5503200000001

> <PUBCHEM_MMFF94_ENERGY>
66.5177

> <PUBCHEM_FEATURE_SELFOVERLAP>
81.319

> <PUBCHEM_SHAPE_FINGERPRINT>
10 15 18040434400506284889
10670039 82 16845294900382558681
12144600 37 18335707199214193243
12643181 29 12679452098302228141
14251764 18 12035447233801241751
15131766 46 17976259359441323620
15183329 4 15554455114846720877
15301273 46 17168145628521476338
15347591 1 18194683894234304594
15392192 104 15140965062691782465
15840311 113 18113901606225474093
15961568 22 18261110756172479461
18335252 114 18412256246743412532
19611394 137 17969234494088778921
21033648 29 18268417117542794928
21585482 111 18189614931114742053
24893992 56 18411700997961673939
249057 3 18412265056374924966
2838139 119 18412539929496518981
335352 9 18342461444062666598
4073 2 18335142008390247155
4625314 4 18408322216252070959
59682541 35 11963395158637929926

> <PUBCHEM_SHAPE_MULTIPOLES>
576.96
28.06
3.01
1.06
27.62
0.97
0.07
7.6
2.07
-5.12
0.29
-0.52
0.04
0.72

> <PUBCHEM_SHAPE_SELFOVERLAP>
1201.079

> <PUBCHEM_SHAPE_VOLUME>
323.6

> <PUBCHEM_COORDINATE_TYPE>
2
5
10

$$$$
