25314526
  -OEChem-12032416383D

 60 63  0     1  0  0  0  0  0999 V2000
    2.2306   -2.2385   -1.4020 O   0  0  0  0  0  0  0  0  0  0  0  0
    2.5601   -3.8776    0.2060 O   0  0  0  0  0  0  0  0  0  0  0  0
    2.6423   -1.9964    2.3867 O   0  0  0  0  0  0  0  0  0  0  0  0
    3.9220    1.7502    1.2957 O   0  0  0  0  0  0  0  0  0  0  0  0
   -0.0405   -1.2436    0.0466 N   0  0  0  0  0  0  0  0  0  0  0  0
    2.9382    0.3960   -0.3127 N   0  0  0  0  0  0  0  0  0  0  0  0
    2.9180    2.6760   -0.5800 N   0  0  0  0  0  0  0  0  0  0  0  0
    0.9757   -2.1058    0.6532 C   0  0  2  0  0  0  0  0  0  0  0  0
    2.0862   -1.2464    1.2987 C   0  0  2  0  0  0  0  0  0  0  0  0
    3.2222   -0.8738    0.3208 C   0  0  1  0  0  0  0  0  0  0  0  0
    1.5694   -3.0422   -0.4153 C   0  0  1  0  0  0  0  0  0  0  0  0
    3.4742   -1.9497   -0.7556 C   0  0  1  0  0  0  0  0  0  0  0  0
   -0.7773   -1.9718   -0.9950 C   0  0  0  0  0  0  0  0  0  0  0  0
   -0.9515   -0.7217    1.0741 C   0  0  0  0  0  0  0  0  0  0  0  0
   -2.7769   -0.4613   -0.6567 C   0  0  0  0  0  0  0  0  0  0  0  0
    3.8192   -3.3174   -0.1970 C   0  0  0  0  0  0  0  0  0  0  0  0
   -1.8071   -1.0682   -1.6763 C   0  0  0  0  0  0  0  0  0  0  0  0
   -1.9879    0.2243    0.4639 C   0  0  0  0  0  0  0  0  0  0  0  0
   -3.7382    0.5158   -1.3278 C   0  0  0  0  0  0  0  0  0  0  0  0
   -4.9809    0.7249   -0.5063 C   0  0  0  0  0  0  0  0  0  0  0  0
    3.3156    1.6180    0.2334 C   0  0  0  0  0  0  0  0  0  0  0  0
   -6.0908   -0.0976   -0.6993 C   0  0  0  0  0  0  0  0  0  0  0  0
   -5.0233    1.7409    0.4483 C   0  0  0  0  0  0  0  0  0  0  0  0
   -7.2432    0.0960    0.0623 C   0  0  0  0  0  0  0  0  0  0  0  0
   -6.1757    1.9346    1.2099 C   0  0  0  0  0  0  0  0  0  0  0  0
    3.1817    4.0573   -0.2520 C   0  0  0  0  0  0  0  0  0  0  0  0
   -7.2857    1.1121    1.0169 C   0  0  0  0  0  0  0  0  0  0  0  0
    4.4983    4.4535   -0.8327 C   0  0  0  0  0  0  0  0  0  0  0  0
    5.5250    4.9123   -0.1079 C   0  0  0  0  0  0  0  0  0  0  0  0
    0.5276   -2.7499    1.4237 H   0  0  0  0  0  0  0  0  0  0  0  0
    1.6821   -0.3435    1.7670 H   0  0  0  0  0  0  0  0  0  0  0  0
    4.1550   -0.7485    0.8858 H   0  0  0  0  0  0  0  0  0  0  0  0
    0.8607   -3.7338   -0.8778 H   0  0  0  0  0  0  0  0  0  0  0  0
    4.2105   -1.6077   -1.4901 H   0  0  0  0  0  0  0  0  0  0  0  0
   -1.2821   -2.8571   -0.5861 H   0  0  0  0  0  0  0  0  0  0  0  0
   -0.1476   -2.2803   -1.8339 H   0  0  0  0  0  0  0  0  0  0  0  0
   -0.4099   -0.1590    1.8410 H   0  0  0  0  0  0  0  0  0  0  0  0
   -1.4708   -1.5424    1.5873 H   0  0  0  0  0  0  0  0  0  0  0  0
   -3.3469   -1.2918   -0.2160 H   0  0  0  0  0  0  0  0  0  0  0  0
    4.2240   -3.9688   -0.9791 H   0  0  0  0  0  0  0  0  0  0  0  0
    4.5183   -3.2942    0.6432 H   0  0  0  0  0  0  0  0  0  0  0  0
   -1.2889   -0.2671   -2.2205 H   0  0  0  0  0  0  0  0  0  0  0  0
   -2.3640   -1.6501   -2.4209 H   0  0  0  0  0  0  0  0  0  0  0  0
   -2.6571    0.5538    1.2651 H   0  0  0  0  0  0  0  0  0  0  0  0
   -1.4800    1.1186    0.0792 H   0  0  0  0  0  0  0  0  0  0  0  0
    2.3711    0.3979   -1.1551 H   0  0  0  0  0  0  0  0  0  0  0  0
   -4.0395    0.1332   -2.3122 H   0  0  0  0  0  0  0  0  0  0  0  0
   -3.2513    1.4787   -1.5297 H   0  0  0  0  0  0  0  0  0  0  0  0
    3.2974   -1.4303    2.8294 H   0  0  0  0  0  0  0  0  0  0  0  0
   -6.0695   -0.8943   -1.4382 H   0  0  0  0  0  0  0  0  0  0  0  0
   -4.1699    2.3955    0.6036 H   0  0  0  0  0  0  0  0  0  0  0  0
    2.4397    2.4686   -1.4515 H   0  0  0  0  0  0  0  0  0  0  0  0
   -8.1072   -0.5447   -0.0875 H   0  0  0  0  0  0  0  0  0  0  0  0
   -6.2096    2.7270    1.9518 H   0  0  0  0  0  0  0  0  0  0  0  0
    2.3825    4.6607   -0.6932 H   0  0  0  0  0  0  0  0  0  0  0  0
    3.1533    4.1859    0.8353 H   0  0  0  0  0  0  0  0  0  0  0  0
   -8.1831    1.2631    1.6097 H   0  0  0  0  0  0  0  0  0  0  0  0
    4.6180    4.3766   -1.9106 H   0  0  0  0  0  0  0  0  0  0  0  0
    6.4558    5.1917   -0.5894 H   0  0  0  0  0  0  0  0  0  0  0  0
    5.4575    5.0158    0.9694 H   0  0  0  0  0  0  0  0  0  0  0  0
  1 11  1  0  0  0  0
  1 12  1  0  0  0  0
  2 11  1  0  0  0  0
  2 16  1  0  0  0  0
  3  9  1  0  0  0  0
  3 49  1  0  0  0  0
  4 21  2  0  0  0  0
  5  8  1  0  0  0  0
  5 13  1  0  0  0  0
  5 14  1  0  0  0  0
  6 10  1  0  0  0  0
  6 21  1  0  0  0  0
  6 46  1  0  0  0  0
  7 21  1  0  0  0  0
  7 26  1  0  0  0  0
  7 52  1  0  0  0  0
  8  9  1  0  0  0  0
  8 11  1  0  0  0  0
  8 30  1  0  0  0  0
  9 10  1  0  0  0  0
  9 31  1  0  0  0  0
 10 12  1  0  0  0  0
 10 32  1  0  0  0  0
 11 33  1  0  0  0  0
 12 16  1  0  0  0  0
 12 34  1  0  0  0  0
 13 17  1  0  0  0  0
 13 35  1  0  0  0  0
 13 36  1  0  0  0  0
 14 18  1  0  0  0  0
 14 37  1  0  0  0  0
 14 38  1  0  0  0  0
 15 17  1  0  0  0  0
 15 18  1  0  0  0  0
 15 19  1  0  0  0  0
 15 39  1  0  0  0  0
 16 40  1  0  0  0  0
 16 41  1  0  0  0  0
 17 42  1  0  0  0  0
 17 43  1  0  0  0  0
 18 44  1  0  0  0  0
 18 45  1  0  0  0  0
 19 20  1  0  0  0  0
 19 47  1  0  0  0  0
 19 48  1  0  0  0  0
 20 22  2  0  0  0  0
 20 23  1  0  0  0  0
 22 24  1  0  0  0  0
 22 50  1  0  0  0  0
 23 25  2  0  0  0  0
 23 51  1  0  0  0  0
 24 27  2  0  0  0  0
 24 53  1  0  0  0  0
 25 27  1  0  0  0  0
 25 54  1  0  0  0  0
 26 28  1  0  0  0  0
 26 55  1  0  0  0  0
 26 56  1  0  0  0  0
 27 57  1  0  0  0  0
 28 29  2  0  0  0  0
 28 58  1  0  0  0  0
 29 59  1  0  0  0  0
 29 60  1  0  0  0  0
M  END
> <PUBCHEM_COMPOUND_CID>
25314526

> <PUBCHEM_CONFORMER_RMSD>
1

> <PUBCHEM_CONFORMER_DIVERSEORDER>
1
21
36
82
80
55
6
60
35
45
85
98
68
17
89
67
84
79
74
63
62
27
92
5
95
88
38
24
99
87
75
28
90
64
14
18
86
32
54
31
37
23
81
96
72
11
39
66
49
56
4
97
42
25
10
69
61
20
50
94
51
46
65
13
12
59
43
76
34
16
19
48
9
47
22
91
77
83
41
7
2
29
44
71
30
33
58
73
78
15
53
8
70
3
26
93
40
57
52

> <PUBCHEM_MMFF94_PARTIAL_CHARGES>
37
1 -0.56
10 0.3
11 0.56
12 0.28
13 0.27
14 0.27
16 0.28
19 0.14
2 -0.56
20 -0.14
21 0.69
22 -0.15
23 -0.15
24 -0.15
25 -0.15
26 0.44
27 -0.15
28 -0.29
29 -0.3
3 -0.68
4 -0.57
46 0.37
49 0.4
5 -0.81
50 0.15
51 0.15
52 0.37
53 0.15
54 0.15
57 0.15
58 0.15
59 0.15
6 -0.73
60 0.15
7 -0.73
8 0.27
9 0.28

> <PUBCHEM_EFFECTIVE_ROTOR_COUNT>
10.4

> <PUBCHEM_PHARMACOPHORE_FEATURES>
12
1 1 acceptor
1 2 acceptor
1 29 hydrophobe
1 3 acceptor
1 3 donor
1 4 acceptor
1 5 cation
1 6 donor
1 7 donor
6 20 22 23 24 25 27 rings
6 5 13 14 15 17 18 rings
8 1 2 8 9 10 11 12 16 rings

> <PUBCHEM_HEAVY_ATOM_COUNT>
29

> <PUBCHEM_ATOM_DEF_STEREO_COUNT>
5

> <PUBCHEM_ATOM_UDEF_STEREO_COUNT>
0

> <PUBCHEM_BOND_DEF_STEREO_COUNT>
0

> <PUBCHEM_BOND_UDEF_STEREO_COUNT>
0

> <PUBCHEM_ISOTOPIC_ATOM_COUNT>
0

> <PUBCHEM_COMPONENT_COUNT>
1

> <PUBCHEM_CACTVS_TAUTO_COUNT>
3

> <PUBCHEM_CONFORMER_ID>
018244DE00000001

> <PUBCHEM_MMFF94_ENERGY>
68.616

> <PUBCHEM_FEATURE_SELFOVERLAP>
60.997

> <PUBCHEM_SHAPE_FINGERPRINT>
10483366 6 18338814355656957916
10673678 19 18339647836113691801
10816530 23 18408325518839926747
10937287 8 18195244649174490644
1200032 147 18188775079997375280
12107183 9 18046324587465959520
12166972 35 18199468766389120411
12616971 3 17987787511340689639
13590594 115 18050288064014841048
13782708 43 17097777859718718131
14251764 75 18266461086304545148
14849402 71 18410013200304775726
15021287 119 18197205963249388207
15081414 286 18266733598221786982
15131766 46 18340475781903662469
15163728 17 18267304420781832980
15183329 4 14189282730906017875
15439362 3 18341051930396475012
15685185 35 17977670028201055501
17844677 252 18268432335402701657
17899979 129 18339371850390255892
19301679 30 17616245884964970026
19438510 23 18266175226482574208
21365058 113 18054523412817389790
22149856 69 17846501427287650691
22224240 67 7925325417769483030
23522609 53 17774458126826888089
23559900 14 18337675217754079699
3004659 81 17631729353318675383
3411729 13 18409167744318969389
38570 142 18340498862260917028
397830 11 18188219779828386715
4516262 110 18338228388473105165
474 4 18410005572221214446
513532 50 17989214728761998252
53794403 172 18411142449959016324
56616090 278 18261386737526828466
57724786 102 18341051831184939597
5776283 40 18337409222546133036
6034566 193 18120098543827312333
6201320 215 16466145181639561092
7288768 16 17897159354402726856
9849439 229 18197771318273887896

> <PUBCHEM_SHAPE_MULTIPOLES>
558.39
15.87
5.55
1.39
28.17
4.92
-0.25
14.46
-1.58
-14.39
0.64
0.16
-0.42
-1.78

> <PUBCHEM_SHAPE_SELFOVERLAP>
1177.303

> <PUBCHEM_SHAPE_VOLUME>
309.1

> <PUBCHEM_COORDINATE_TYPE>
2
5
10

$$$$
