75536842
  -OEChem-12032416313D

 47 49  0     1  0  0  0  0  0999 V2000
   -0.1642   -1.2490    0.0351 O   0  0  0  0  0  0  0  0  0  0  0  0
   -1.1508    2.1321    0.7425 O   0  0  0  0  0  0  0  0  0  0  0  0
    3.4196    1.3603    0.5813 O   0  0  0  0  0  0  0  0  0  0  0  0
   -3.5191    0.1515    0.1556 N   0  0  0  0  0  0  0  0  0  0  0  0
    2.3531   -0.5787    1.2542 N   0  0  0  0  0  0  0  0  0  0  0  0
    4.5098   -0.7148    0.4555 N   0  0  0  0  0  0  0  0  0  0  0  0
   -8.5428   -0.0365    0.0060 N   0  0  0  0  0  0  0  0  0  0  0  0
   -2.1099    0.0933   -0.1974 C   0  0  1  0  0  0  0  0  0  0  0  0
   -1.1962    0.7217    0.8384 C   0  0  1  0  0  0  0  0  0  0  0  0
    0.1388    0.0849    0.4767 C   0  0  1  0  0  0  0  0  0  0  0  0
   -1.5716   -1.3271   -0.2512 C   0  0  0  0  0  0  0  0  0  0  0  0
    1.1134    0.0316    1.6398 C   0  0  0  0  0  0  0  0  0  0  0  0
   -4.3618   -0.1490   -0.9957 C   0  0  0  0  0  0  0  0  0  0  0  0
   -5.8253   -0.1096   -0.6447 C   0  0  0  0  0  0  0  0  0  0  0  0
    3.4434    0.1422    0.7410 C   0  0  0  0  0  0  0  0  0  0  0  0
   -6.4035   -1.1614    0.0574 C   0  0  0  0  0  0  0  0  0  0  0  0
   -6.6043    0.9787   -1.0218 C   0  0  0  0  0  0  0  0  0  0  0  0
   -7.7540   -1.0773    0.3555 C   0  0  0  0  0  0  0  0  0  0  0  0
   -7.9458    0.9671   -0.6753 C   0  0  0  0  0  0  0  0  0  0  0  0
    5.7779   -0.3766   -0.0721 C   0  0  0  0  0  0  0  0  0  0  0  0
    6.7283   -1.3728   -0.2957 C   0  0  0  0  0  0  0  0  0  0  0  0
    6.0781    0.9528   -0.3686 C   0  0  0  0  0  0  0  0  0  0  0  0
    7.9790   -1.0395   -0.8157 C   0  0  0  0  0  0  0  0  0  0  0  0
    7.3286    1.2862   -0.8886 C   0  0  0  0  0  0  0  0  0  0  0  0
    8.2791    0.2901   -1.1122 C   0  0  0  0  0  0  0  0  0  0  0  0
   -1.9373    0.6028   -1.1561 H   0  0  0  0  0  0  0  0  0  0  0  0
   -1.5034    0.4461    1.8550 H   0  0  0  0  0  0  0  0  0  0  0  0
    0.6039    0.6106   -0.3677 H   0  0  0  0  0  0  0  0  0  0  0  0
   -2.0209   -1.9722    0.5128 H   0  0  0  0  0  0  0  0  0  0  0  0
   -1.7168   -1.7974   -1.2284 H   0  0  0  0  0  0  0  0  0  0  0  0
    0.7095   -0.5817    2.4528 H   0  0  0  0  0  0  0  0  0  0  0  0
    1.3090    1.0371    2.0269 H   0  0  0  0  0  0  0  0  0  0  0  0
   -3.7399    1.0899    0.4902 H   0  0  0  0  0  0  0  0  0  0  0  0
   -4.1368   -1.1465   -1.3944 H   0  0  0  0  0  0  0  0  0  0  0  0
   -4.1645    0.5605   -1.8100 H   0  0  0  0  0  0  0  0  0  0  0  0
   -0.8793    2.3686   -0.1606 H   0  0  0  0  0  0  0  0  0  0  0  0
    2.4401   -1.5861    1.3460 H   0  0  0  0  0  0  0  0  0  0  0  0
   -5.8252   -2.0255    0.3664 H   0  0  0  0  0  0  0  0  0  0  0  0
   -6.1872    1.8175   -1.5683 H   0  0  0  0  0  0  0  0  0  0  0  0
    4.3648   -1.7030    0.6469 H   0  0  0  0  0  0  0  0  0  0  0  0
   -8.2527   -1.8715    0.9012 H   0  0  0  0  0  0  0  0  0  0  0  0
   -8.5964    1.7924   -0.9455 H   0  0  0  0  0  0  0  0  0  0  0  0
    6.5073   -2.4127   -0.0690 H   0  0  0  0  0  0  0  0  0  0  0  0
    5.3963    1.7786   -0.2233 H   0  0  0  0  0  0  0  0  0  0  0  0
    8.7192   -1.8150   -0.9898 H   0  0  0  0  0  0  0  0  0  0  0  0
    7.5637    2.3211   -1.1199 H   0  0  0  0  0  0  0  0  0  0  0  0
    9.2529    0.5497   -1.5170 H   0  0  0  0  0  0  0  0  0  0  0  0
  1 10  1  0  0  0  0
  1 11  1  0  0  0  0
  2  9  1  0  0  0  0
  2 36  1  0  0  0  0
  3 15  2  0  0  0  0
  4  8  1  0  0  0  0
  4 13  1  0  0  0  0
  4 33  1  0  0  0  0
  5 12  1  0  0  0  0
  5 15  1  0  0  0  0
  5 37  1  0  0  0  0
  6 15  1  0  0  0  0
  6 20  1  0  0  0  0
  6 40  1  0  0  0  0
  7 18  2  0  0  0  0
  7 19  1  0  0  0  0
  8  9  1  0  0  0  0
  8 11  1  0  0  0  0
  8 26  1  0  0  0  0
  9 10  1  0  0  0  0
  9 27  1  0  0  0  0
 10 12  1  0  0  0  0
 10 28  1  0  0  0  0
 11 29  1  0  0  0  0
 11 30  1  0  0  0  0
 12 31  1  0  0  0  0
 12 32  1  0  0  0  0
 13 14  1  0  0  0  0
 13 34  1  0  0  0  0
 13 35  1  0  0  0  0
 14 16  2  0  0  0  0
 14 17  1  0  0  0  0
 16 18  1  0  0  0  0
 16 38  1  0  0  0  0
 17 19  2  0  0  0  0
 17 39  1  0  0  0  0
 18 41  1  0  0  0  0
 19 42  1  0  0  0  0
 20 21  2  0  0  0  0
 20 22  1  0  0  0  0
 21 23  1  0  0  0  0
 21 43  1  0  0  0  0
 22 24  2  0  0  0  0
 22 44  1  0  0  0  0
 23 25  2  0  0  0  0
 23 45  1  0  0  0  0
 24 25  1  0  0  0  0
 24 46  1  0  0  0  0
 25 47  1  0  0  0  0
M  END
> <PUBCHEM_COMPOUND_CID>
75536842

> <PUBCHEM_CONFORMER_RMSD>
1

> <PUBCHEM_CONFORMER_DIVERSEORDER>
1
137
107
72
81
150
78
75
73
4
111
20
89
30
39
6
17
58
131
118
122
136
140
9
147
106
85
134
141
146
127
144
148
55
87
54
97
156
37
48
62
133
31
56
163
70
169
27
8
76
64
44
99
138
40
143
59
68
24
166
108
158
13
167
132
52
90
94
112
149
157
43
46
93
35
170
142
130
105
15
154
77
82
117
151
103
145
11
49
80
126
113
57
120
153
109
61
26
10
60
79
114
50
92
29
129
161
65
34
83
38
53
71
159
86
36
123
121
91
101
3
45
23
119
18
47
168
21
12
139
33
95
32
110
100
51
84
128
162
155
125
124
152
63
116
135
104
14
102
42
22
2
115
41
19
98
7
69
16
5
67
165
164
160
25
74
28
88
96
66

> <PUBCHEM_MMFF94_PARTIAL_CHARGES>
38
1 -0.56
10 0.28
11 0.28
12 0.3
13 0.41
14 -0.14
15 0.69
16 -0.15
17 -0.15
18 0.16
19 0.16
2 -0.68
20 0.12
21 -0.15
22 -0.15
23 -0.15
24 -0.15
25 -0.15
3 -0.57
33 0.36
36 0.4
37 0.37
38 0.15
39 0.15
4 -0.9
40 0.37
41 0.15
42 0.15
43 0.15
44 0.15
45 0.15
46 0.15
47 0.15
5 -0.73
6 -0.55
7 -0.62
8 0.27
9 0.28

> <PUBCHEM_EFFECTIVE_ROTOR_COUNT>
9

> <PUBCHEM_PHARMACOPHORE_FEATURES>
12
1 1 acceptor
1 2 acceptor
1 2 donor
1 3 acceptor
1 4 cation
1 4 donor
1 5 donor
1 6 donor
1 7 acceptor
5 1 8 9 10 11 rings
6 20 21 22 23 24 25 rings
6 7 14 16 17 18 19 rings

> <PUBCHEM_HEAVY_ATOM_COUNT>
25

> <PUBCHEM_ATOM_DEF_STEREO_COUNT>
3

> <PUBCHEM_ATOM_UDEF_STEREO_COUNT>
0

> <PUBCHEM_BOND_DEF_STEREO_COUNT>
0

> <PUBCHEM_BOND_UDEF_STEREO_COUNT>
0

> <PUBCHEM_ISOTOPIC_ATOM_COUNT>
0

> <PUBCHEM_COMPONENT_COUNT>
1

> <PUBCHEM_CACTVS_TAUTO_COUNT>
3

> <PUBCHEM_CONFORMER_ID>
048099CA00000001

> <PUBCHEM_MMFF94_ENERGY>
60.848

> <PUBCHEM_FEATURE_SELFOVERLAP>
60.948

> <PUBCHEM_SHAPE_FINGERPRINT>
10 15 8142082070342064570
10066227 49 18200315420951358134
10162869 55 12829494783248198819
10299344 5 17918276449929017787
106641 1 11963395141542541029
10670039 82 18059575754999871953
10883706 142 16443059513800383874
11315181 36 17313100848994056901
11524674 6 14620510142582913229
11638347 137 9511467727786786284
12592606 108 16773508949877397943
13673619 4 16917347026336528448
13685833 64 15267341821476877482
13885169 127 12751243597345679379
14216079 64 14979962454355753684
14251764 18 17131837555422262074
14251764 46 18272932722410449958
14347424 109 12895063038326711138
14856354 85 18411416242246926503
14933364 13 18260544533136739509
15183329 4 17917992767507889618
15461852 350 18342725344529068399
15690457 1 12535623873263724252
15849732 13 18186521016144535879
16994733 274 15936681576205652045
1754911 235 17749387066309748831
18335252 98 17967535670797917251
19301679 30 11383573157071944956
19841028 212 13182475334782902108
20105231 36 18341896307781663035
20554085 129 14273731889403022752
20735858 18 8574713511476546616
21095086 128 17846494864292525791
21150785 3 18040435494662680886
21267235 1 18273215305098378561
21403212 168 11312060937142895909
21792934 111 10447928351867924218
221357 26 18411417307209281880
22224240 67 14056719049733594600
23559900 14 17916855958679618776
23576562 1 18191858128018366541
246663 6 17275106128150391618
24771293 8 13406792195054431951
249057 25 12463294764500350259
28498 318 15841554063178347805
335352 9 18343858936258146383
4107672 100 18409725154312802653
4339292 15 11170211873847209377
439807 62 17703793596614623102
444769 64 16630524060013625151
5219985 9 16343704330909010288
5283156 175 18131071524344080532
5470011 282 18410577288725094230
5758199 1 16153425039202745145
59682541 35 14418139513232779293
59682541 52 18411703171763355638
6394761 36 16343984715159056447
67123 10 17894914040248121183
9689198 14 17967813842606842239

> <PUBCHEM_SHAPE_MULTIPOLES>
476.96
29.82
1.41
1.12
1.51
0.16
-0.14
-0.27
11.05
-0.31
0.02
-0.52
0.11
0.34

> <PUBCHEM_SHAPE_SELFOVERLAP>
1005.887

> <PUBCHEM_SHAPE_VOLUME>
266

> <PUBCHEM_COORDINATE_TYPE>
2
5
10

$$$$
