38027864
  -OEChem-12032416233D

 71 72  0     1  0  0  0  0  0999 V2000
   -0.9194    3.3438    0.9921 O   0  0  0  0  0  0  0  0  0  0  0  0
    1.7166   -3.1667   -0.8360 O   0  0  0  0  0  0  0  0  0  0  0  0
   -5.3764   -1.3481   -1.4244 O   0  0  0  0  0  0  0  0  0  0  0  0
    3.1736   -1.4338   -0.3743 N   0  0  0  0  0  0  0  0  0  0  0  0
   -0.9946    1.3874    2.2440 N   0  0  0  0  0  0  0  0  0  0  0  0
    1.2793    0.6202   -1.4862 C   0  0  1  0  0  0  0  0  0  0  0  0
    2.7928    0.5096   -1.7979 C   0  0  1  0  0  0  0  0  0  0  0  0
    0.9047    2.0730   -1.1557 C   0  0  0  0  0  0  0  0  0  0  0  0
    1.6925    2.6178    0.0507 C   0  0  2  0  0  0  0  0  0  0  0  0
    0.4205    0.1150   -2.6498 C   0  0  0  0  0  0  0  0  0  0  0  0
    3.1719    2.3081   -0.0567 C   0  0  0  0  0  0  0  0  0  0  0  0
    3.6462    1.3722   -0.8980 C   0  0  0  0  0  0  0  0  0  0  0  0
    3.2700   -0.9447   -1.7138 C   0  0  0  0  0  0  0  0  0  0  0  0
    1.1161    2.0918    1.3699 C   0  0  0  0  0  0  0  0  0  0  0  0
   -0.9486   -0.3309   -2.1464 C   0  0  0  0  0  0  0  0  0  0  0  0
    0.2790    1.1972   -3.7155 C   0  0  0  0  0  0  0  0  0  0  0  0
    4.0994    3.1316    0.7930 C   0  0  0  0  0  0  0  0  0  0  0  0
   -0.3649    2.3700    1.4943 C   0  0  0  0  0  0  0  0  0  0  0  0
    2.3883   -2.5320   -0.0221 C   0  0  0  0  0  0  0  0  0  0  0  0
    2.4266   -2.8982    1.4766 C   0  0  0  0  0  0  0  0  0  0  0  0
    1.9259   -1.7168    2.3213 C   0  0  0  0  0  0  0  0  0  0  0  0
    1.5076   -4.1068    1.7305 C   0  0  0  0  0  0  0  0  0  0  0  0
    3.8573   -3.2755    1.8902 C   0  0  0  0  0  0  0  0  0  0  0  0
   -2.4114    1.3975    2.5273 C   0  0  0  0  0  0  0  0  0  0  0  0
   -3.1995    0.6684    1.4778 C   0  0  0  0  0  0  0  0  0  0  0  0
   -4.1848    1.3392    0.7531 C   0  0  0  0  0  0  0  0  0  0  0  0
   -2.9459   -0.6801    1.2270 C   0  0  0  0  0  0  0  0  0  0  0  0
   -4.9165    0.6615   -0.2219 C   0  0  0  0  0  0  0  0  0  0  0  0
   -3.6776   -1.3580    0.2521 C   0  0  0  0  0  0  0  0  0  0  0  0
   -4.6630   -0.6871   -0.4723 C   0  0  0  0  0  0  0  0  0  0  0  0
   -5.0656   -2.7257   -1.6289 C   0  0  0  0  0  0  0  0  0  0  0  0
    1.0537    0.0103   -0.6029 H   0  0  0  0  0  0  0  0  0  0  0  0
    2.9825    0.8557   -2.8217 H   0  0  0  0  0  0  0  0  0  0  0  0
   -0.1739    2.1808   -1.0207 H   0  0  0  0  0  0  0  0  0  0  0  0
    1.1693    2.7318   -1.9938 H   0  0  0  0  0  0  0  0  0  0  0  0
    1.5710    3.7101    0.0337 H   0  0  0  0  0  0  0  0  0  0  0  0
    0.8850   -0.7602   -3.1153 H   0  0  0  0  0  0  0  0  0  0  0  0
    4.7223    1.2251   -0.9674 H   0  0  0  0  0  0  0  0  0  0  0  0
    4.3284   -1.0105   -1.9944 H   0  0  0  0  0  0  0  0  0  0  0  0
    2.7257   -1.5934   -2.4052 H   0  0  0  0  0  0  0  0  0  0  0  0
    1.6013    2.5776    2.2251 H   0  0  0  0  0  0  0  0  0  0  0  0
    1.3068    1.0185    1.4630 H   0  0  0  0  0  0  0  0  0  0  0  0
   -1.5117    0.4897   -1.6917 H   0  0  0  0  0  0  0  0  0  0  0  0
   -0.8489   -1.1292   -1.4032 H   0  0  0  0  0  0  0  0  0  0  0  0
   -1.5513   -0.7249   -2.9721 H   0  0  0  0  0  0  0  0  0  0  0  0
   -0.3849    2.0143   -3.4146 H   0  0  0  0  0  0  0  0  0  0  0  0
   -0.1759    0.7600   -4.6131 H   0  0  0  0  0  0  0  0  0  0  0  0
    1.2422    1.6108   -4.0285 H   0  0  0  0  0  0  0  0  0  0  0  0
    3.9530    4.1977    0.5919 H   0  0  0  0  0  0  0  0  0  0  0  0
    5.1520    2.9011    0.5971 H   0  0  0  0  0  0  0  0  0  0  0  0
    3.9152    2.9483    1.8559 H   0  0  0  0  0  0  0  0  0  0  0  0
    3.7466   -0.9896    0.3361 H   0  0  0  0  0  0  0  0  0  0  0  0
   -0.4493    0.6171    2.6195 H   0  0  0  0  0  0  0  0  0  0  0  0
    1.8488   -1.9907    3.3794 H   0  0  0  0  0  0  0  0  0  0  0  0
    2.5996   -0.8560    2.2567 H   0  0  0  0  0  0  0  0  0  0  0  0
    0.9360   -1.3886    1.9848 H   0  0  0  0  0  0  0  0  0  0  0  0
    1.5097   -4.3943    2.7880 H   0  0  0  0  0  0  0  0  0  0  0  0
    1.8267   -4.9784    1.1473 H   0  0  0  0  0  0  0  0  0  0  0  0
    0.4721   -3.8840    1.4475 H   0  0  0  0  0  0  0  0  0  0  0  0
    3.8898   -3.6267    2.9276 H   0  0  0  0  0  0  0  0  0  0  0  0
    4.2528   -4.0730    1.2508 H   0  0  0  0  0  0  0  0  0  0  0  0
    4.5441   -2.4259    1.8117 H   0  0  0  0  0  0  0  0  0  0  0  0
   -2.7444    2.4373    2.6215 H   0  0  0  0  0  0  0  0  0  0  0  0
   -2.5607    0.9151    3.4998 H   0  0  0  0  0  0  0  0  0  0  0  0
   -4.3926    2.3900    0.9364 H   0  0  0  0  0  0  0  0  0  0  0  0
   -2.1824   -1.2151    1.7860 H   0  0  0  0  0  0  0  0  0  0  0  0
   -5.6823    1.1894   -0.7836 H   0  0  0  0  0  0  0  0  0  0  0  0
   -3.4285   -2.4037    0.1084 H   0  0  0  0  0  0  0  0  0  0  0  0
   -5.7275   -3.0924   -2.4202 H   0  0  0  0  0  0  0  0  0  0  0  0
   -5.2748   -3.3226   -0.7347 H   0  0  0  0  0  0  0  0  0  0  0  0
   -4.0381   -2.8573   -1.9850 H   0  0  0  0  0  0  0  0  0  0  0  0
  1 18  2  0  0  0  0
  2 19  2  0  0  0  0
  3 30  1  0  0  0  0
  3 31  1  0  0  0  0
  4 13  1  0  0  0  0
  4 19  1  0  0  0  0
  4 52  1  0  0  0  0
  5 18  1  0  0  0  0
  5 24  1  0  0  0  0
  5 53  1  0  0  0  0
  6  7  1  0  0  0  0
  6  8  1  0  0  0  0
  6 10  1  0  0  0  0
  6 32  1  0  0  0  0
  7 12  1  0  0  0  0
  7 13  1  0  0  0  0
  7 33  1  0  0  0  0
  8  9  1  0  0  0  0
  8 34  1  0  0  0  0
  8 35  1  0  0  0  0
  9 11  1  0  0  0  0
  9 14  1  0  0  0  0
  9 36  1  0  0  0  0
 10 15  1  0  0  0  0
 10 16  1  0  0  0  0
 10 37  1  0  0  0  0
 11 12  2  0  0  0  0
 11 17  1  0  0  0  0
 12 38  1  0  0  0  0
 13 39  1  0  0  0  0
 13 40  1  0  0  0  0
 14 18  1  0  0  0  0
 14 41  1  0  0  0  0
 14 42  1  0  0  0  0
 15 43  1  0  0  0  0
 15 44  1  0  0  0  0
 15 45  1  0  0  0  0
 16 46  1  0  0  0  0
 16 47  1  0  0  0  0
 16 48  1  0  0  0  0
 17 49  1  0  0  0  0
 17 50  1  0  0  0  0
 17 51  1  0  0  0  0
 19 20  1  0  0  0  0
 20 21  1  0  0  0  0
 20 22  1  0  0  0  0
 20 23  1  0  0  0  0
 21 54  1  0  0  0  0
 21 55  1  0  0  0  0
 21 56  1  0  0  0  0
 22 57  1  0  0  0  0
 22 58  1  0  0  0  0
 22 59  1  0  0  0  0
 23 60  1  0  0  0  0
 23 61  1  0  0  0  0
 23 62  1  0  0  0  0
 24 25  1  0  0  0  0
 24 63  1  0  0  0  0
 24 64  1  0  0  0  0
 25 26  2  0  0  0  0
 25 27  1  0  0  0  0
 26 28  1  0  0  0  0
 26 65  1  0  0  0  0
 27 29  2  0  0  0  0
 27 66  1  0  0  0  0
 28 30  2  0  0  0  0
 28 67  1  0  0  0  0
 29 30  1  0  0  0  0
 29 68  1  0  0  0  0
 31 69  1  0  0  0  0
 31 70  1  0  0  0  0
 31 71  1  0  0  0  0
M  END
> <PUBCHEM_COMPOUND_CID>
38027864

> <PUBCHEM_CONFORMER_RMSD>
1

> <PUBCHEM_CONFORMER_DIVERSEORDER>
1
62
156
189
36
49
232
81
213
248
165
35
191
34
45
136
249
97
17
246
245
134
203
252
193
233
167
122
30
25
148
244
206
172
231
205
174
194
48
129
27
86
70
100
125
131
130
186
210
236
51
56
199
176
218
28
66
67
76
105
58
101
29
104
116
78
111
243
141
127
53
187
175
196
109
92
154
23
195
149
217
65
200
123
69
137
46
12
198
159
107
170
95
31
121
77
19
126
13
228
42
161
209
115
204
164
54
71
6
238
85
2
241
143
239
98
119
73
212
94
147
43
160
185
166
162
60
235
229
103
215
150
135
211
91
183
250
112
219
128
247
133
44
158
52
108
96
88
192
169
153
197
144
223
139
226
118
21
41
84
75
32
132
124
151
224
89
64
47
106
221
83
173
225
26
10
99
220
214
179
117
140
55
145
234
50
68
40
57
120
102
7
93
163
74
80
237
114
3
63
207
9
33
14
171
82
216
11
138
182
168
152
240
59
201
110
79
61
251
222
188
230
39
8
177
4
5
190
242
20
227
16
202
38
155
208
113
181
146
157
87
184
142
180
24
18
90
178
72
15
37
22

> <PUBCHEM_MMFF94_PARTIAL_CHARGES>
30
1 -0.57
11 -0.28
12 -0.29
13 0.3
14 0.06
17 0.14
18 0.57
19 0.57
2 -0.57
20 0.06
24 0.44
25 -0.14
26 -0.15
27 -0.15
28 -0.15
29 -0.15
3 -0.36
30 0.08
31 0.28
38 0.15
4 -0.73
5 -0.73
52 0.37
53 0.37
65 0.15
66 0.15
67 0.15
68 0.15
7 0.14
9 0.14

> <PUBCHEM_EFFECTIVE_ROTOR_COUNT>
11.8

> <PUBCHEM_PHARMACOPHORE_FEATURES>
9
1 1 acceptor
1 2 acceptor
1 3 acceptor
1 4 donor
1 5 donor
3 10 15 16 hydrophobe
4 20 21 22 23 hydrophobe
6 25 26 27 28 29 30 rings
6 6 7 8 9 11 12 rings

> <PUBCHEM_HEAVY_ATOM_COUNT>
31

> <PUBCHEM_ATOM_DEF_STEREO_COUNT>
3

> <PUBCHEM_ATOM_UDEF_STEREO_COUNT>
0

> <PUBCHEM_BOND_DEF_STEREO_COUNT>
0

> <PUBCHEM_BOND_UDEF_STEREO_COUNT>
0

> <PUBCHEM_ISOTOPIC_ATOM_COUNT>
0

> <PUBCHEM_COMPONENT_COUNT>
1

> <PUBCHEM_CACTVS_TAUTO_COUNT>
4

> <PUBCHEM_CONFORMER_ID>
0244425800000001

> <PUBCHEM_MMFF94_ENERGY>
76.0906

> <PUBCHEM_FEATURE_SELFOVERLAP>
45.671

> <PUBCHEM_SHAPE_FINGERPRINT>
11370993 70 18117002293233959425
11578080 2 17896599488436869052
12156800 1 14461676664467252797
13726171 33 17273996772943273657
14674994 50 17032743829783162390
17138139 8 18128542745893982750
19026451 147 18411692184351497691
19315092 285 18266157561445583655
20764821 26 17543947909637269851
20775530 9 17535187748591177714
23559900 14 16843903957558751533
25222932 49 18057045929152454447
35225 105 17329173753500517534
4394409 98 18053925287814848727
46194498 28 15939550304936663105
463206 1 18338250305205146833
469060 322 16408666673128273899
484985 159 17472677149229001403
5081480 168 17096363930777380329
513532 50 17168688817709936555

> <PUBCHEM_SHAPE_MULTIPOLES>
610.4
9.3
4.69
3.13
11.56
3.16
-1.24
2.86
-0.92
-4.8
2.41
0.09
-0.31
-2.72

> <PUBCHEM_SHAPE_SELFOVERLAP>
1246.804

> <PUBCHEM_SHAPE_VOLUME>
353.4

> <PUBCHEM_COORDINATE_TYPE>
2
5
10

$$$$
