75536880
  -OEChem-12032416303D

 33 34  0     1  0  0  0  0  0999 V2000
   -3.5698   -0.7954   -0.6427 O   0  0  0  0  0  0  0  0  0  0  0  0
   -2.1127    2.5123   -0.3772 O   0  0  0  0  0  0  0  0  0  0  0  0
    0.7068   -2.6831    0.5630 O   0  0  0  0  0  0  0  0  0  0  0  0
    3.4400   -0.0484   -1.0992 O   0  0  0  0  0  0  0  0  0  0  0  0
   -0.6822   -0.7954    0.5757 N   0  0  0  0  0  0  0  0  0  0  0  0
    2.3891   -0.9570   -1.0703 N   0  0  0  0  0  0  0  0  0  0  0  0
   -2.2432    1.1446    0.0131 C   0  0  2  0  0  0  0  0  0  0  0  0
   -0.8363    0.6478    0.3576 C   0  0  0  0  0  0  0  0  0  0  0  0
   -1.8680   -1.5747    0.9353 C   0  0  0  0  0  0  0  0  0  0  0  0
   -2.8951    0.3624   -1.1252 C   0  0  0  0  0  0  0  0  0  0  0  0
   -2.7160   -1.8796   -0.2929 C   0  0  0  0  0  0  0  0  0  0  0  0
    0.5390   -1.4723    0.4213 C   0  0  0  0  0  0  0  0  0  0  0  0
    1.7309   -0.6883    0.0610 C   0  0  0  0  0  0  0  0  0  0  0  0
   -2.0117    3.3629    0.7536 C   0  0  0  0  0  0  0  0  0  0  0  0
    2.3145    0.3692    0.7797 C   0  0  0  0  0  0  0  0  0  0  0  0
    3.3851    0.7358    0.0077 C   0  0  0  0  0  0  0  0  0  0  0  0
    4.4294    1.7592    0.1393 C   0  0  0  0  0  0  0  0  0  0  0  0
   -2.8946    1.0712    0.8941 H   0  0  0  0  0  0  0  0  0  0  0  0
   -0.1478    0.9692   -0.4324 H   0  0  0  0  0  0  0  0  0  0  0  0
   -0.4889    1.1244    1.2808 H   0  0  0  0  0  0  0  0  0  0  0  0
   -2.4284   -1.0306    1.7027 H   0  0  0  0  0  0  0  0  0  0  0  0
   -1.5448   -2.5227    1.3791 H   0  0  0  0  0  0  0  0  0  0  0  0
   -3.6571    0.9890   -1.6029 H   0  0  0  0  0  0  0  0  0  0  0  0
   -2.1793    0.0981   -1.9132 H   0  0  0  0  0  0  0  0  0  0  0  0
   -2.1085   -2.1719   -1.1574 H   0  0  0  0  0  0  0  0  0  0  0  0
   -3.3775   -2.7210   -0.0603 H   0  0  0  0  0  0  0  0  0  0  0  0
   -2.0178    4.3970    0.3964 H   0  0  0  0  0  0  0  0  0  0  0  0
   -1.0754    3.2071    1.2952 H   0  0  0  0  0  0  0  0  0  0  0  0
   -2.8673    3.2342    1.4241 H   0  0  0  0  0  0  0  0  0  0  0  0
    2.0101    0.8010    1.7218 H   0  0  0  0  0  0  0  0  0  0  0  0
    5.4207    1.2962    0.1667 H   0  0  0  0  0  0  0  0  0  0  0  0
    4.3969    2.4531   -0.7063 H   0  0  0  0  0  0  0  0  0  0  0  0
    4.3007    2.3391    1.0585 H   0  0  0  0  0  0  0  0  0  0  0  0
  1 10  1  0  0  0  0
  1 11  1  0  0  0  0
  2  7  1  0  0  0  0
  2 14  1  0  0  0  0
  3 12  2  0  0  0  0
  4  6  1  0  0  0  0
  4 16  1  0  0  0  0
  5  8  1  0  0  0  0
  5  9  1  0  0  0  0
  5 12  1  0  0  0  0
  6 13  2  0  0  0  0
  7  8  1  0  0  0  0
  7 10  1  0  0  0  0
  7 18  1  0  0  0  0
  8 19  1  0  0  0  0
  8 20  1  0  0  0  0
  9 11  1  0  0  0  0
  9 21  1  0  0  0  0
  9 22  1  0  0  0  0
 10 23  1  0  0  0  0
 10 24  1  0  0  0  0
 11 25  1  0  0  0  0
 11 26  1  0  0  0  0
 12 13  1  0  0  0  0
 13 15  1  0  0  0  0
 14 27  1  0  0  0  0
 14 28  1  0  0  0  0
 14 29  1  0  0  0  0
 15 16  2  0  0  0  0
 15 30  1  0  0  0  0
 16 17  1  0  0  0  0
 17 31  1  0  0  0  0
 17 32  1  0  0  0  0
 17 33  1  0  0  0  0
M  END
> <PUBCHEM_COMPOUND_CID>
75536880

> <PUBCHEM_CONFORMER_RMSD>
0.6

> <PUBCHEM_CONFORMER_DIVERSEORDER>
1
73
97
77
45
98
63
12
67
24
109
91
112
35
89
64
115
55
96
9
28
30
107
113
84
47
72
80
92
10
105
61
114
59
102
87
82
123
106
62
120
74
65
16
71
52
11
125
36
100
126
69
99
18
40
93
21
37
29
111
27
108
42
13
90
75
32
103
38
57
81
83
23
121
7
19
54
79
39
76
110
101
58
119
34
8
124
25
31
66
46
20
4
14
15
95
5
86
3
116
117
33
122
50
88
48
70
17
51
94
60
68
2
22
44
41
78
53
6
49
118
56
26
43
104
85

> <PUBCHEM_MMFF94_PARTIAL_CHARGES>
18
1 -0.56
10 0.28
11 0.28
12 0.72
13 0.2
14 0.28
15 -0.15
16 -0.04
17 0.18
2 -0.56
3 -0.57
30 0.15
4 -0.02
5 -0.66
6 -0.41
7 0.28
8 0.3
9 0.3

> <PUBCHEM_EFFECTIVE_ROTOR_COUNT>
4.4

> <PUBCHEM_PHARMACOPHORE_FEATURES>
6
1 1 acceptor
1 2 acceptor
1 3 acceptor
1 6 acceptor
5 4 6 13 15 16 rings
7 1 5 7 8 9 10 11 rings

> <PUBCHEM_HEAVY_ATOM_COUNT>
17

> <PUBCHEM_ATOM_DEF_STEREO_COUNT>
1

> <PUBCHEM_ATOM_UDEF_STEREO_COUNT>
0

> <PUBCHEM_BOND_DEF_STEREO_COUNT>
0

> <PUBCHEM_BOND_UDEF_STEREO_COUNT>
0

> <PUBCHEM_ISOTOPIC_ATOM_COUNT>
0

> <PUBCHEM_COMPONENT_COUNT>
1

> <PUBCHEM_CACTVS_TAUTO_COUNT>
1

> <PUBCHEM_CONFORMER_ID>
048099F000000001

> <PUBCHEM_MMFF94_ENERGY>
43.768

> <PUBCHEM_FEATURE_SELFOVERLAP>
30.45

> <PUBCHEM_SHAPE_FINGERPRINT>
10498660 4 18408880741714041733
10608611 8 18412829083964405832
11615756 56 18338232777612643696
12173636 292 18268145362562170133
12251169 10 9006765519116177687
12403260 363 18410001144505532226
13464514 151 18123762945931844526
13764800 53 18186813469236840539
14123250 116 18199752444753223225
14251745 187 18342450473935919200
14614273 12 18040987428225545743
14790565 3 18125723388419076697
16945 1 18409725145385498115
17134986 127 17761772867096709325
17980427 23 17763989538256751866
18186145 218 18272382957716535442
19422 9 12391517545784488522
19765921 60 17676752207329629739
20112054 60 18335985354296591572
20281475 54 9655569717253834392
20361792 2 13901901194061460010
20510252 161 18337676415806491984
20671657 1 17975977566166631362
21501502 16 18264765463317298067
21524375 3 17901954032727625097
21731516 1 11887658559822440860
22169311 14 11602818003952425254
22182937 141 18270411485659602281
22802520 49 18270413680487759686
23402539 116 18266730467122264126
23557571 272 18338524160772886182
23559900 14 18411696604531474202
2748010 2 17763743591138484082
353137 74 18334568028132017091
4028521 119 18335976523817366653
526903 126 18409726249113108201
58051976 378 18412538842838098860
7832392 63 17980198582668268888
81228 2 18335148600199247057
9981440 41 18261099786129192930

> <PUBCHEM_SHAPE_MULTIPOLES>
316.41
6.74
2.98
0.99
4.87
1.72
-0.1
2.12
-1.47
-1.98
0.68
-0.07
-0.07
0.06

> <PUBCHEM_SHAPE_SELFOVERLAP>
649.842

> <PUBCHEM_SHAPE_VOLUME>
181.1

> <PUBCHEM_COORDINATE_TYPE>
2
5
10

$$$$
