26745389
  -OEChem-12032416183D

 52 56  0     1  0  0  0  0  0999 V2000
    0.8794   -1.7839    0.0738 O   0  0  0  0  0  0  0  0  0  0  0  0
   -1.5934    2.2709   -0.5828 O   0  0  0  0  0  0  0  0  0  0  0  0
   -2.0010   -0.2824    0.8532 N   0  0  2  0  0  0  0  0  0  0  0  0
   -5.1410    1.6531    1.4036 N   0  0  0  0  0  0  0  0  0  0  0  0
   -5.6097    1.0791   -0.7065 N   0  0  0  0  0  0  0  0  0  0  0  0
   -0.1218    0.9067   -1.7631 N   0  0  0  0  0  0  0  0  0  0  0  0
    5.9487    3.1850    2.0877 N   0  0  0  0  0  0  0  0  0  0  0  0
   -1.9796   -0.0884   -0.6187 C   0  0  1  0  0  0  0  0  0  0  0  0
   -3.4020   -0.0530   -1.2491 C   0  0  0  0  0  0  0  0  0  0  0  0
   -2.7531    0.7486    1.6053 C   0  0  0  0  0  0  0  0  0  0  0  0
   -4.0386    1.0151    0.9226 C   0  0  0  0  0  0  0  0  0  0  0  0
   -4.3477    0.6775   -0.3719 C   0  0  0  0  0  0  0  0  0  0  0  0
   -0.6766   -0.5001    1.4274 C   0  0  0  0  0  0  0  0  0  0  0  0
   -1.2248    1.1641   -0.9671 C   0  0  0  0  0  0  0  0  0  0  0  0
   -0.0971   -1.8231    1.0176 C   0  0  0  0  0  0  0  0  0  0  0  0
   -6.0617    1.6657    0.3848 C   0  0  0  0  0  0  0  0  0  0  0  0
   -0.3488   -3.1189    1.4048 C   0  0  0  0  0  0  0  0  0  0  0  0
    0.7578    1.9429   -2.2541 C   0  0  0  0  0  0  0  0  0  0  0  0
    0.5302   -3.9401    0.6505 C   0  0  0  0  0  0  0  0  0  0  0  0
    1.2634   -3.0718   -0.1517 C   0  0  0  0  0  0  0  0  0  0  0  0
    1.8905    2.2140   -1.3068 C   0  0  0  0  0  0  0  0  0  0  0  0
    0.7869   -5.3191    0.5572 C   0  0  0  0  0  0  0  0  0  0  0  0
    2.2460   -3.4809   -1.0515 C   0  0  0  0  0  0  0  0  0  0  0  0
    1.7694   -5.7611   -0.3393 C   0  0  0  0  0  0  0  0  0  0  0  0
    2.4848   -4.8564   -1.1280 C   0  0  0  0  0  0  0  0  0  0  0  0
    2.0551    3.4879   -0.7628 C   0  0  0  0  0  0  0  0  0  0  0  0
    2.7783    1.1920   -0.9706 C   0  0  0  0  0  0  0  0  0  0  0  0
    3.1074    3.7396    0.1173 C   0  0  0  0  0  0  0  0  0  0  0  0
    3.8306    1.4439   -0.0905 C   0  0  0  0  0  0  0  0  0  0  0  0
    3.9952    2.7176    0.4536 C   0  0  0  0  0  0  0  0  0  0  0  0
    5.0732    2.9756    1.3553 C   0  0  0  0  0  0  0  0  0  0  0  0
   -1.4897   -0.9524   -1.0840 H   0  0  0  0  0  0  0  0  0  0  0  0
   -3.7701   -1.0797   -1.3665 H   0  0  0  0  0  0  0  0  0  0  0  0
   -3.3778    0.4106   -2.2420 H   0  0  0  0  0  0  0  0  0  0  0  0
   -2.1807    1.6763    1.7166 H   0  0  0  0  0  0  0  0  0  0  0  0
   -2.9590    0.3712    2.6145 H   0  0  0  0  0  0  0  0  0  0  0  0
   -0.7515   -0.5275    2.5232 H   0  0  0  0  0  0  0  0  0  0  0  0
    0.0198    0.3149    1.1964 H   0  0  0  0  0  0  0  0  0  0  0  0
   -5.2627    2.0451    2.3281 H   0  0  0  0  0  0  0  0  0  0  0  0
   -7.0364    2.1168    0.5051 H   0  0  0  0  0  0  0  0  0  0  0  0
    0.1066   -0.0506   -2.0137 H   0  0  0  0  0  0  0  0  0  0  0  0
   -1.0759   -3.4355    2.1394 H   0  0  0  0  0  0  0  0  0  0  0  0
    0.1674    2.8484   -2.4349 H   0  0  0  0  0  0  0  0  0  0  0  0
    1.1570    1.6122   -3.2194 H   0  0  0  0  0  0  0  0  0  0  0  0
    0.2393   -6.0340    1.1638 H   0  0  0  0  0  0  0  0  0  0  0  0
    2.7961   -2.7729   -1.6598 H   0  0  0  0  0  0  0  0  0  0  0  0
    1.9775   -6.8249   -0.4212 H   0  0  0  0  0  0  0  0  0  0  0  0
    3.2413   -5.2283   -1.8146 H   0  0  0  0  0  0  0  0  0  0  0  0
    1.3708    4.2936   -1.0149 H   0  0  0  0  0  0  0  0  0  0  0  0
    2.6651    0.1961   -1.3909 H   0  0  0  0  0  0  0  0  0  0  0  0
    3.2224    4.7377    0.5335 H   0  0  0  0  0  0  0  0  0  0  0  0
    4.5146    0.6369    0.1613 H   0  0  0  0  0  0  0  0  0  0  0  0
  1 15  1  0  0  0  0
  1 20  1  0  0  0  0
  2 14  2  0  0  0  0
  3  8  1  0  0  0  0
  3 10  1  0  0  0  0
  3 13  1  0  0  0  0
  4 11  1  0  0  0  0
  4 16  1  0  0  0  0
  4 39  1  0  0  0  0
  5 12  1  0  0  0  0
  5 16  2  0  0  0  0
  6 14  1  0  0  0  0
  6 18  1  0  0  0  0
  6 41  1  0  0  0  0
  7 31  3  0  0  0  0
  8  9  1  0  0  0  0
  8 14  1  0  0  0  0
  8 32  1  0  0  0  0
  9 12  1  0  0  0  0
  9 33  1  0  0  0  0
  9 34  1  0  0  0  0
 10 11  1  0  0  0  0
 10 35  1  0  0  0  0
 10 36  1  0  0  0  0
 11 12  2  0  0  0  0
 13 15  1  0  0  0  0
 13 37  1  0  0  0  0
 13 38  1  0  0  0  0
 15 17  2  0  0  0  0
 16 40  1  0  0  0  0
 17 19  1  0  0  0  0
 17 42  1  0  0  0  0
 18 21  1  0  0  0  0
 18 43  1  0  0  0  0
 18 44  1  0  0  0  0
 19 20  1  0  0  0  0
 19 22  2  0  0  0  0
 20 23  2  0  0  0  0
 21 26  2  0  0  0  0
 21 27  1  0  0  0  0
 22 24  1  0  0  0  0
 22 45  1  0  0  0  0
 23 25  1  0  0  0  0
 23 46  1  0  0  0  0
 24 25  2  0  0  0  0
 24 47  1  0  0  0  0
 25 48  1  0  0  0  0
 26 28  1  0  0  0  0
 26 49  1  0  0  0  0
 27 29  2  0  0  0  0
 27 50  1  0  0  0  0
 28 30  2  0  0  0  0
 28 51  1  0  0  0  0
 29 30  1  0  0  0  0
 29 52  1  0  0  0  0
 30 31  1  0  0  0  0
M  END
> <PUBCHEM_COMPOUND_CID>
26745389

> <PUBCHEM_CONFORMER_RMSD>
1

> <PUBCHEM_CONFORMER_DIVERSEORDER>
1
213
46
85
195
209
205
131
70
216
171
86
208
214
166
20
177
202
101
146
212
104
115
67
200
49
82
119
155
215
5
117
189
161
58
194
27
201
154
158
103
149
56
123
139
163
109
142
11
179
204
125
188
206
26
157
40
203
77
134
110
106
164
50
92
197
170
52
187
59
211
113
23
112
185
66
192
54
91
80
89
172
78
97
16
44
152
9
169
120
186
207
173
184
102
151
75
45
133
99
160
175
141
180
55
168
62
100
135
199
138
24
95
21
96
122
124
190
42
15
121
210
111
63
159
83
196
69
79
94
129
32
128
19
51
60
37
198
73
108
181
74
153
61
93
162
145
137
88
176
178
76
84
28
165
29
48
114
182
98
33
22
7
118
17
105
34
14
116
183
143
3
31
43
90
150
53
39
12
18
10
126
68
8
107
147
174
36
148
156
81
136
72
127
132
41
144
2
191
30
6
64
167
87
47
71
65
35
4
57
130
140
193
25
38
13

> <PUBCHEM_MMFF94_PARTIAL_CHARGES>
42
1 -0.28
10 0.45
11 -0.33
12 0.05
13 0.45
14 0.57
15 -0.04
16 0.04
17 -0.15
18 0.44
2 -0.57
20 0.14
21 -0.14
22 -0.15
23 -0.15
24 -0.15
25 -0.15
26 -0.15
27 -0.15
28 -0.15
29 -0.15
3 -0.81
30 0.07
31 0.48
39 0.27
4 0.03
40 0.15
41 0.37
42 0.15
45 0.15
46 0.15
47 0.15
48 0.15
49 0.15
5 -0.57
50 0.15
51 0.15
52 0.15
6 -0.73
7 -0.56
8 0.33
9 0.18

> <PUBCHEM_EFFECTIVE_ROTOR_COUNT>
6.8

> <PUBCHEM_PHARMACOPHORE_FEATURES>
12
1 1 acceptor
1 2 acceptor
1 3 cation
1 4 donor
1 6 donor
1 7 acceptor
3 4 5 16 cation
5 1 15 17 19 20 rings
5 4 5 11 12 16 rings
6 19 20 22 23 24 25 rings
6 21 26 27 28 29 30 rings
6 3 8 9 10 11 12 rings

> <PUBCHEM_HEAVY_ATOM_COUNT>
31

> <PUBCHEM_ATOM_DEF_STEREO_COUNT>
1

> <PUBCHEM_ATOM_UDEF_STEREO_COUNT>
0

> <PUBCHEM_BOND_DEF_STEREO_COUNT>
0

> <PUBCHEM_BOND_UDEF_STEREO_COUNT>
0

> <PUBCHEM_ISOTOPIC_ATOM_COUNT>
0

> <PUBCHEM_COMPONENT_COUNT>
1

> <PUBCHEM_CACTVS_TAUTO_COUNT>
4

> <PUBCHEM_CONFORMER_ID>
01981A2D00000001

> <PUBCHEM_MMFF94_ENERGY>
61.0294

> <PUBCHEM_FEATURE_SELFOVERLAP>
61.1

> <PUBCHEM_SHAPE_FINGERPRINT>
10816530 23 18050566545721749680
11552529 35 17545320139225737676
11763715 3 17199630080133410565
12156800 1 16463269859546271334
12422481 6 17894342302311895985
12633257 1 18117269466466427368
12741549 16 17480287981732686203
12788726 201 17252598279168913790
13004483 165 17184192184737770002
13540713 5 17319285811948532796
13692114 37 18192717958616815431
15420108 30 18337378461678738930
17913733 40 18265916768757290657
1813 80 17765444145254485399
1979834 28 18260555506499047633
20101258 96 17544484054921075883
20511986 3 17917983980527834397
20771845 65 17980765931232489803
20775438 99 18333444345004280063
21033648 29 18268720578800218664
21120745 212 17257388344651814710
21304303 282 18055058024302278607
22182313 1 17531805724186547725
23559900 14 17823719472896690445
238918 7 18186793673580034228
4017518 198 18339082696301761454
5171179 24 17975410218525888821
5265222 85 18044121109822666652
6058803 2 17393882191072165252
6287921 2 18338791204796619411
6371380 46 18341904008926809932
79837 15 18120096332061254819
9981440 41 18267304411801645051

> <PUBCHEM_SHAPE_MULTIPOLES>
601.32
9.91
7.9
1.75
7.48
13.37
0.01
-13.64
3.49
-11.21
0.02
-0.52
-0.75
1.88

> <PUBCHEM_SHAPE_SELFOVERLAP>
1332.291

> <PUBCHEM_SHAPE_VOLUME>
319.7

> <PUBCHEM_COORDINATE_TYPE>
2
5
10

$$$$
