75536039
  -OEChem-12032416323D

 48 51  0     1  0  0  0  0  0999 V2000
    6.6729    0.5715    1.6058 Cl  0  0  0  0  0  0  0  0  0  0  0  0
    7.4661   -2.2615    1.2441 F   0  0  0  0  0  0  0  0  0  0  0  0
    0.4932   -1.2756   -1.6839 O   0  0  0  0  0  0  0  0  0  0  0  0
   -2.9323   -0.2706   -1.7135 O   0  0  0  0  0  0  0  0  0  0  0  0
   -4.6838   -0.5895    0.0794 O   0  0  0  0  0  0  0  0  0  0  0  0
   -7.7483   -1.7323    1.5253 O   0  0  0  0  0  0  0  0  0  0  0  0
   -6.9219   -1.9072   -0.6228 O   0  0  0  0  0  0  0  0  0  0  0  0
   -1.4277    0.9457   -0.4142 N   0  0  0  0  0  0  0  0  0  0  0  0
    0.0500    3.7391    1.5687 N   0  0  0  0  0  0  0  0  0  0  0  0
    0.8691    4.4117   -0.3982 N   0  0  0  0  0  0  0  0  0  0  0  0
    1.8788    0.1709   -0.6817 N   0  0  0  0  0  0  0  0  0  0  0  0
    1.6399   -2.0054   -1.3457 N   0  0  0  0  0  0  0  0  0  0  0  0
   -0.4015    1.0044   -1.5113 C   0  0  1  0  0  0  0  0  0  0  0  0
    0.0390    2.4722   -1.8003 C   0  0  0  0  0  0  0  0  0  0  0  0
   -1.0749    1.5520    0.8999 C   0  0  0  0  0  0  0  0  0  0  0  0
    0.2058    3.2253   -0.5378 C   0  0  0  0  0  0  0  0  0  0  0  0
   -0.3107    2.7911    0.6583 C   0  0  0  0  0  0  0  0  0  0  0  0
    0.7167   -0.0048   -1.2582 C   0  0  0  0  0  0  0  0  0  0  0  0
   -2.6179    0.2401   -0.6356 C   0  0  0  0  0  0  0  0  0  0  0  0
    0.7580    4.6951    0.8843 C   0  0  0  0  0  0  0  0  0  0  0  0
   -3.5568    0.1160    0.5387 C   0  0  0  0  0  0  0  0  0  0  0  0
    2.4094   -1.0839   -0.7587 C   0  0  0  0  0  0  0  0  0  0  0  0
    3.7130   -1.3836   -0.2404 C   0  0  0  0  0  0  0  0  0  0  0  0
   -5.6561   -0.7744    1.1067 C   0  0  0  0  0  0  0  0  0  0  0  0
    4.4723   -0.3798    0.3607 C   0  0  0  0  0  0  0  0  0  0  0  0
    4.2213   -2.6789   -0.3379 C   0  0  0  0  0  0  0  0  0  0  0  0
    5.7401   -0.6712    0.8642 C   0  0  0  0  0  0  0  0  0  0  0  0
    5.4892   -2.9702    0.1655 C   0  0  0  0  0  0  0  0  0  0  0  0
    6.2485   -1.9664    0.7667 C   0  0  0  0  0  0  0  0  0  0  0  0
   -6.8258   -1.5338    0.5384 C   0  0  0  0  0  0  0  0  0  0  0  0
   -8.9253   -2.4461    1.1336 C   0  0  0  0  0  0  0  0  0  0  0  0
   -0.8802    0.6604   -2.4383 H   0  0  0  0  0  0  0  0  0  0  0  0
   -0.7452    2.9694   -2.3849 H   0  0  0  0  0  0  0  0  0  0  0  0
    0.9604    2.4922   -2.3922 H   0  0  0  0  0  0  0  0  0  0  0  0
   -0.4662    0.8195    1.4407 H   0  0  0  0  0  0  0  0  0  0  0  0
   -1.9638    1.7668    1.4947 H   0  0  0  0  0  0  0  0  0  0  0  0
   -0.1596    3.7414    2.5582 H   0  0  0  0  0  0  0  0  0  0  0  0
    1.1623    5.5668    1.3789 H   0  0  0  0  0  0  0  0  0  0  0  0
   -3.8683    1.1122    0.8668 H   0  0  0  0  0  0  0  0  0  0  0  0
   -3.0629   -0.4314    1.3481 H   0  0  0  0  0  0  0  0  0  0  0  0
   -5.2182   -1.3568    1.9239 H   0  0  0  0  0  0  0  0  0  0  0  0
   -6.0057    0.2007    1.4614 H   0  0  0  0  0  0  0  0  0  0  0  0
    4.0905    0.6357    0.4449 H   0  0  0  0  0  0  0  0  0  0  0  0
    3.6591   -3.4868   -0.7994 H   0  0  0  0  0  0  0  0  0  0  0  0
    5.8858   -3.9784    0.0896 H   0  0  0  0  0  0  0  0  0  0  0  0
   -9.5753   -2.5360    2.0081 H   0  0  0  0  0  0  0  0  0  0  0  0
   -9.4600   -1.8957    0.3537 H   0  0  0  0  0  0  0  0  0  0  0  0
   -8.6617   -3.4500    0.7873 H   0  0  0  0  0  0  0  0  0  0  0  0
  1 27  1  0  0  0  0
  2 29  1  0  0  0  0
  3 12  1  0  0  0  0
  3 18  1  0  0  0  0
  4 19  2  0  0  0  0
  5 21  1  0  0  0  0
  5 24  1  0  0  0  0
  6 30  1  0  0  0  0
  6 31  1  0  0  0  0
  7 30  2  0  0  0  0
  8 13  1  0  0  0  0
  8 15  1  0  0  0  0
  8 19  1  0  0  0  0
  9 17  1  0  0  0  0
  9 20  1  0  0  0  0
  9 37  1  0  0  0  0
 10 16  1  0  0  0  0
 10 20  2  0  0  0  0
 11 18  2  0  0  0  0
 11 22  1  0  0  0  0
 12 22  2  0  0  0  0
 13 14  1  0  0  0  0
 13 18  1  0  0  0  0
 13 32  1  0  0  0  0
 14 16  1  0  0  0  0
 14 33  1  0  0  0  0
 14 34  1  0  0  0  0
 15 17  1  0  0  0  0
 15 35  1  0  0  0  0
 15 36  1  0  0  0  0
 16 17  2  0  0  0  0
 19 21  1  0  0  0  0
 20 38  1  0  0  0  0
 21 39  1  0  0  0  0
 21 40  1  0  0  0  0
 22 23  1  0  0  0  0
 23 25  2  0  0  0  0
 23 26  1  0  0  0  0
 24 30  1  0  0  0  0
 24 41  1  0  0  0  0
 24 42  1  0  0  0  0
 25 27  1  0  0  0  0
 25 43  1  0  0  0  0
 26 28  2  0  0  0  0
 26 44  1  0  0  0  0
 27 29  2  0  0  0  0
 28 29  1  0  0  0  0
 28 45  1  0  0  0  0
 31 46  1  0  0  0  0
 31 47  1  0  0  0  0
 31 48  1  0  0  0  0
M  END
> <PUBCHEM_COMPOUND_CID>
75536039

> <PUBCHEM_CONFORMER_RMSD>
1

> <PUBCHEM_CONFORMER_DIVERSEORDER>
1
99
102
129
106
26
72
83
136
9
114
51
98
144
4
70
101
109
80
76
53
139
105
142
110
35
18
55
78
90
126
29
66
27
143
63
135
82
6
133
94
118
56
100
41
121
107
116
127
108
28
138
84
36
60
25
16
134
48
141
43
22
19
21
8
93
69
115
39
49
130
2
146
88
137
5
117
64
50
112
65
61
20
67
96
119
44
128
30
7
103
47
75
79
46
89
68
34
87
74
17
40
62
85
10
45
97
104
24
31
147
145
81
77
113
11
120
111
58
37
73
122
42
38
132
148
125
140
13
124
86
52
12
59
92
57
15
131
95
23
91
123
3
71
32
33
14
54

> <PUBCHEM_MMFF94_PARTIAL_CHARGES>
36
1 -0.18
10 -0.57
11 -0.57
12 -0.41
13 0.48
14 0.18
15 0.48
16 0.05
17 -0.33
18 0.3
19 0.57
2 -0.19
20 0.04
21 0.34
22 0.46
23 0.05
24 0.34
25 -0.15
26 -0.15
27 0.18
28 -0.15
29 0.19
3 -0.02
30 0.66
31 0.28
37 0.27
38 0.15
4 -0.57
43 0.15
44 0.15
45 0.15
5 -0.56
6 -0.43
7 -0.57
8 -0.66
9 0.03

> <PUBCHEM_EFFECTIVE_ROTOR_COUNT>
8.8

> <PUBCHEM_PHARMACOPHORE_FEATURES>
10
1 4 acceptor
1 5 acceptor
1 7 acceptor
1 9 donor
3 11 12 22 cation
3 9 10 20 cation
5 3 11 12 18 22 rings
5 9 10 16 17 20 rings
6 23 25 26 27 28 29 rings
6 8 13 14 15 16 17 rings

> <PUBCHEM_HEAVY_ATOM_COUNT>
31

> <PUBCHEM_ATOM_DEF_STEREO_COUNT>
1

> <PUBCHEM_ATOM_UDEF_STEREO_COUNT>
0

> <PUBCHEM_BOND_DEF_STEREO_COUNT>
0

> <PUBCHEM_BOND_UDEF_STEREO_COUNT>
0

> <PUBCHEM_ISOTOPIC_ATOM_COUNT>
0

> <PUBCHEM_COMPONENT_COUNT>
1

> <PUBCHEM_CACTVS_TAUTO_COUNT>
2

> <PUBCHEM_CONFORMER_ID>
048096A700000001

> <PUBCHEM_MMFF94_ENERGY>
55.4835

> <PUBCHEM_FEATURE_SELFOVERLAP>
50.873

> <PUBCHEM_SHAPE_FINGERPRINT>
10369192 42 10807928267775998827
10483366 6 7925643210609105944
10673678 19 9799699203217939193
11200772 48 8069728720650831280
11297750 10 18187638124865851045
11456790 92 18261691315855123107
11823591 26 9943520765712010295
12218070 45 17417516017074706271
12758862 65 18334584580656993107
13008946 282 17631731712052450129
13257819 101 12751243567169924409
13383668 362 18125720343065484307
13533116 47 18265625454263555779
13540713 5 17557978726744343087
13673619 4 17967535684072754375
13692115 27 18337687334251889509
13782708 43 17895198835535433327
14068700 675 17968382256069815862
14394314 77 18336830767412048075
15183329 4 12468353544569458567
15188451 53 17676203538142792202
15347590 135 18335405865141876986
15927050 60 17622727931058555724
16993427 108 18261665991715745379
17980427 23 17203038686195624909
18393751 57 17989197166783610334
2026 5 17821447968043285643
20721686 146 12679466378519822419
21344244 78 17774735216140738369
21639891 77 18262228920553162437
23559900 14 17750804427551239143
23845131 108 17260755044698022112
25019877 29 16774075167932004903
2747138 104 18340486669497603046
32027 91 18261396715189791179
4058900 60 9295294958357366605
4112364 45 15482386555968114883
4149490 64 18194969763564381483
5104073 3 17909252595920400626
6004065 56 18410016576138995379
6009941 240 18043241358780944605
6126387 218 18343579621972018027
9689198 14 11815896769104978115
9962374 69 18268988860328388399

> <PUBCHEM_SHAPE_MULTIPOLES>
578.31
19.45
4.9
1.61
24.44
6.24
0.2
-27.63
-12.18
-1.52
-1
0.12
0.28
1.19

> <PUBCHEM_SHAPE_SELFOVERLAP>
1242.603

> <PUBCHEM_SHAPE_VOLUME>
320.8

> <PUBCHEM_COORDINATE_TYPE>
2
5
10

$$$$
