11867446
  -OEChem-12032416153D

 60 63  0     1  0  0  0  0  0999 V2000
    0.0833   -1.8530   -1.2808 O   0  0  0  0  0  0  0  0  0  0  0  0
   -0.5206   -3.6829    1.0900 O   0  0  0  0  0  0  0  0  0  0  0  0
    2.4876   -2.0080    0.1021 O   0  0  0  0  0  0  0  0  0  0  0  0
    2.9016   -0.1059    1.3023 O   0  0  0  0  0  0  0  0  0  0  0  0
    8.4522    2.9256   -0.2949 O   0  0  0  0  0  0  0  0  0  0  0  0
   -2.9155   -1.3995   -0.5555 N   0  0  0  0  0  0  0  0  0  0  0  0
    4.3775   -0.8630   -0.3497 N   0  0  0  0  0  0  0  0  0  0  0  0
   -7.6106    2.9151   -0.1134 N   0  0  0  0  0  0  0  0  0  0  0  0
   -1.0629   -2.3967    0.7194 C   0  0  1  0  0  0  0  0  0  0  0  0
    0.0809   -1.5933    0.1341 C   0  0  1  0  0  0  0  0  0  0  0  0
   -2.0302   -2.5564   -0.4337 C   0  0  2  0  0  0  0  0  0  0  0  0
    1.2856   -2.1982    0.8137 C   0  0  1  0  0  0  0  0  0  0  0  0
   -1.0854   -2.6130   -1.6254 C   0  0  0  0  0  0  0  0  0  0  0  0
    0.9021   -3.6583    0.9029 C   0  0  0  0  0  0  0  0  0  0  0  0
   -4.0952   -1.5616    0.2805 C   0  0  0  0  0  0  0  0  0  0  0  0
   -5.0230   -0.3803    0.1767 C   0  0  0  0  0  0  0  0  0  0  0  0
    3.2405   -0.9007    0.4340 C   0  0  0  0  0  0  0  0  0  0  0  0
   -4.8760    0.7006    1.0461 C   0  0  0  0  0  0  0  0  0  0  0  0
   -6.0296   -0.3667   -0.7889 C   0  0  0  0  0  0  0  0  0  0  0  0
   -5.7353    1.7949    0.9498 C   0  0  0  0  0  0  0  0  0  0  0  0
   -6.8889    0.7277   -0.8852 C   0  0  0  0  0  0  0  0  0  0  0  0
   -6.7417    1.8085   -0.0158 C   0  0  0  0  0  0  0  0  0  0  0  0
    5.4134    0.0986   -0.3348 C   0  0  0  0  0  0  0  0  0  0  0  0
    6.4946   -0.0272   -1.2072 C   0  0  0  0  0  0  0  0  0  0  0  0
    5.3538    1.1742    0.5514 C   0  0  0  0  0  0  0  0  0  0  0  0
   -7.4747    4.0371    0.7944 C   0  0  0  0  0  0  0  0  0  0  0  0
   -8.6594    2.9390   -1.1133 C   0  0  0  0  0  0  0  0  0  0  0  0
    7.5161    0.9224   -1.1933 C   0  0  0  0  0  0  0  0  0  0  0  0
    6.3753    2.1237    0.5653 C   0  0  0  0  0  0  0  0  0  0  0  0
    7.4565    1.9979   -0.3071 C   0  0  0  0  0  0  0  0  0  0  0  0
    8.3280    3.9994    0.6365 C   0  0  0  0  0  0  0  0  0  0  0  0
   -1.4854   -1.9531    1.6260 H   0  0  0  0  0  0  0  0  0  0  0  0
   -0.0094   -0.5124    0.2748 H   0  0  0  0  0  0  0  0  0  0  0  0
   -2.6043   -3.4900   -0.3973 H   0  0  0  0  0  0  0  0  0  0  0  0
    1.3551   -1.8163    1.8417 H   0  0  0  0  0  0  0  0  0  0  0  0
   -0.7602   -3.6432   -1.8117 H   0  0  0  0  0  0  0  0  0  0  0  0
   -1.5080   -2.2302   -2.5600 H   0  0  0  0  0  0  0  0  0  0  0  0
    1.1481   -4.2100   -0.0114 H   0  0  0  0  0  0  0  0  0  0  0  0
    1.3911   -4.1667    1.7394 H   0  0  0  0  0  0  0  0  0  0  0  0
   -3.2189   -1.3063   -1.5253 H   0  0  0  0  0  0  0  0  0  0  0  0
   -4.6477   -2.4681   -0.0009 H   0  0  0  0  0  0  0  0  0  0  0  0
   -3.8141   -1.6931    1.3330 H   0  0  0  0  0  0  0  0  0  0  0  0
   -4.0942    0.7021    1.8013 H   0  0  0  0  0  0  0  0  0  0  0  0
   -6.1528   -1.2023   -1.4729 H   0  0  0  0  0  0  0  0  0  0  0  0
    4.4859   -1.6189   -1.0215 H   0  0  0  0  0  0  0  0  0  0  0  0
   -5.5793    2.6110    1.6483 H   0  0  0  0  0  0  0  0  0  0  0  0
   -7.6554    0.6904   -1.6530 H   0  0  0  0  0  0  0  0  0  0  0  0
    6.5530   -0.8603   -1.9029 H   0  0  0  0  0  0  0  0  0  0  0  0
    4.5484    1.3364    1.2543 H   0  0  0  0  0  0  0  0  0  0  0  0
   -7.6200    3.7247    1.8346 H   0  0  0  0  0  0  0  0  0  0  0  0
   -6.4951    4.5162    0.6878 H   0  0  0  0  0  0  0  0  0  0  0  0
   -8.2232    4.8122    0.5949 H   0  0  0  0  0  0  0  0  0  0  0  0
   -8.2430    2.8876   -2.1255 H   0  0  0  0  0  0  0  0  0  0  0  0
   -9.3668    2.1156   -0.9647 H   0  0  0  0  0  0  0  0  0  0  0  0
   -9.2441    3.8645   -1.0648 H   0  0  0  0  0  0  0  0  0  0  0  0
    8.3556    0.8194   -1.8755 H   0  0  0  0  0  0  0  0  0  0  0  0
    6.2670    2.9342    1.2780 H   0  0  0  0  0  0  0  0  0  0  0  0
    7.4486    4.6167    0.4239 H   0  0  0  0  0  0  0  0  0  0  0  0
    8.3423    3.6389    1.6706 H   0  0  0  0  0  0  0  0  0  0  0  0
    9.2065    4.6405    0.5094 H   0  0  0  0  0  0  0  0  0  0  0  0
  1 10  1  0  0  0  0
  1 13  1  0  0  0  0
  2  9  1  0  0  0  0
  2 14  1  0  0  0  0
  3 12  1  0  0  0  0
  3 17  1  0  0  0  0
  4 17  2  0  0  0  0
  5 30  1  0  0  0  0
  5 31  1  0  0  0  0
  6 11  1  0  0  0  0
  6 15  1  0  0  0  0
  6 40  1  0  0  0  0
  7 17  1  0  0  0  0
  7 23  1  0  0  0  0
  7 45  1  0  0  0  0
  8 22  1  0  0  0  0
  8 26  1  0  0  0  0
  8 27  1  0  0  0  0
  9 10  1  0  0  0  0
  9 11  1  0  0  0  0
  9 32  1  0  0  0  0
 10 12  1  0  0  0  0
 10 33  1  0  0  0  0
 11 13  1  0  0  0  0
 11 34  1  0  0  0  0
 12 14  1  0  0  0  0
 12 35  1  0  0  0  0
 13 36  1  0  0  0  0
 13 37  1  0  0  0  0
 14 38  1  0  0  0  0
 14 39  1  0  0  0  0
 15 16  1  0  0  0  0
 15 41  1  0  0  0  0
 15 42  1  0  0  0  0
 16 18  2  0  0  0  0
 16 19  1  0  0  0  0
 18 20  1  0  0  0  0
 18 43  1  0  0  0  0
 19 21  2  0  0  0  0
 19 44  1  0  0  0  0
 20 22  2  0  0  0  0
 20 46  1  0  0  0  0
 21 22  1  0  0  0  0
 21 47  1  0  0  0  0
 23 24  2  0  0  0  0
 23 25  1  0  0  0  0
 24 28  1  0  0  0  0
 24 48  1  0  0  0  0
 25 29  2  0  0  0  0
 25 49  1  0  0  0  0
 26 50  1  0  0  0  0
 26 51  1  0  0  0  0
 26 52  1  0  0  0  0
 27 53  1  0  0  0  0
 27 54  1  0  0  0  0
 27 55  1  0  0  0  0
 28 30  2  0  0  0  0
 28 56  1  0  0  0  0
 29 30  1  0  0  0  0
 29 57  1  0  0  0  0
 31 58  1  0  0  0  0
 31 59  1  0  0  0  0
 31 60  1  0  0  0  0
M  END
> <PUBCHEM_COMPOUND_CID>
11867446

> <PUBCHEM_CONFORMER_RMSD>
1

> <PUBCHEM_CONFORMER_DIVERSEORDER>
1
37
22
23
16
29
30
20
19
10
32
8
36
14
18
34
7
11
21
2
12
25
13
26
35
9
5
24
31
27
17
15
6
28
4
3
33

> <PUBCHEM_MMFF94_PARTIAL_CHARGES>
41
1 -0.56
10 0.28
11 0.27
12 0.28
13 0.28
14 0.28
15 0.41
16 -0.14
17 0.78
18 -0.15
19 -0.15
2 -0.56
20 -0.15
21 -0.15
22 0.1
23 0.12
24 -0.15
25 -0.15
26 0.37
27 0.37
28 -0.15
29 -0.15
3 -0.43
30 0.08
31 0.28
4 -0.57
40 0.36
43 0.15
44 0.15
45 0.37
46 0.15
47 0.15
48 0.15
49 0.15
5 -0.36
56 0.15
57 0.15
6 -0.9
7 -0.55
8 -0.84
9 0.28

> <PUBCHEM_EFFECTIVE_ROTOR_COUNT>
10.2

> <PUBCHEM_PHARMACOPHORE_FEATURES>
12
1 1 acceptor
1 2 acceptor
1 4 acceptor
1 5 acceptor
1 6 cation
1 6 donor
1 7 donor
1 8 cation
5 1 9 10 11 13 rings
5 2 9 10 12 14 rings
6 16 18 19 20 21 22 rings
6 23 24 25 28 29 30 rings

> <PUBCHEM_HEAVY_ATOM_COUNT>
31

> <PUBCHEM_ATOM_DEF_STEREO_COUNT>
4

> <PUBCHEM_ATOM_UDEF_STEREO_COUNT>
0

> <PUBCHEM_BOND_DEF_STEREO_COUNT>
0

> <PUBCHEM_BOND_UDEF_STEREO_COUNT>
0

> <PUBCHEM_ISOTOPIC_ATOM_COUNT>
0

> <PUBCHEM_COMPONENT_COUNT>
1

> <PUBCHEM_CACTVS_TAUTO_COUNT>
2

> <PUBCHEM_CONFORMER_ID>
00B5153600000001

> <PUBCHEM_MMFF94_ENERGY>
110.876

> <PUBCHEM_FEATURE_SELFOVERLAP>
61.616

> <PUBCHEM_SHAPE_FINGERPRINT>
10006869 2 18264763272957843022
10055352 69 18272089414572729137
10190206 1 17632305561640623816
10280341 67 18200018660323145816
10533779 1 18335691745874616581
10740516 88 9583518749950277757
10930396 42 16298387943066824541
11181472 205 18115026420813741828
11421887 45 18339346552548495092
11578821 258 17830737918238940764
1200032 147 18113899351615258378
12013929 29 18126567817248238093
12120059 9 9366785083819623343
12124843 1 17917991672349680221
12133447 93 18337122228182850348
12522641 68 18272368706541281774
13248334 5 18120933902050652714
13690498 29 17058362832694258935
13782708 43 11312052136886814379
13944108 23 18340769226578842456
14359421 15 12823300070086401501
14394314 77 18410578345356653301
14565420 104 18040714719124781419
14931854 50 17846779589863030713
15131766 46 18336253562678494559
15152005 77 7853576790572498737
15183329 4 17060348435219897618
15198563 99 17770765017403828855
15347591 1 18410293593024743555
15350500 55 18114177494019171805
15510800 12 10663811997057213037
15803439 3 16845573127678795959
15840311 113 18261959531519048647
15980000 95 17545883729124687234
16126227 98 18336265725192348743
16728433 281 17988931063246750809
16994733 274 18259983803528501400
19303781 99 9367056723611565593
2026 5 10303816479971096693
20609170 114 17386292116829861563
20691028 202 18334859454548017732
20982279 24 12966546722414607157
21033648 29 17458921344575566227
21136928 87 12260266454786823470
21298829 104 18335986393868971285
21424621 283 18408324414911687090
21585482 111 18335420136400621397
21585483 132 10087343479791112885
21781055 127 17676773163419260412
23516275 100 18263923250902959989
23522609 53 16879647092683027670
23569914 152 17699871539975632526
23569943 247 8790588331374309813
25025965 108 11742746209465540508
25242607 90 9295287222820430356
270888 7 18408885135365547099
2748736 6 18408598167135837635
2835820 40 18194119612910398801
3504750 166 9367085366638406855
3918712 181 18410007723926730496
393628 194 18334576892850201277
406291 66 9871749091689165565
4169191 19 18335698300854059821
4366758 26 18410018727628187629
44802255 64 17560244755009817870
4516262 110 18335129870395807495
50009960 94 11964264890291454425
54039377 194 9655570821055271553
54583773 228 18411692164316311261
5718773 13 9727632799843306451
5776283 40 18341891939177555009
5937810 71 18130796655032833569
6327066 14 18413107251758412879
6328613 192 18341615940483819968
636775 72 18194118740910003944
6673363 416 18198341956635194975
6698420 124 18187645830179487762
6712543 237 15140961747040119249
9689198 14 18410863161057647927

> <PUBCHEM_SHAPE_MULTIPOLES>
593.68
29.25
5.17
1.22
8.11
1.53
-0.16
46.12
-4.54
-1.36
1.01
-0.16
-0.23
0.06

> <PUBCHEM_SHAPE_SELFOVERLAP>
1267.837

> <PUBCHEM_SHAPE_VOLUME>
331.6

> <PUBCHEM_COORDINATE_TYPE>
2
5
10

$$$$
