25391134
  -OEChem-12032416233D

 74 77  0     1  0  0  0  0  0999 V2000
   -1.7371    1.3327    0.7324 O   0  0  0  0  0  0  0  0  0  0  0  0
    0.9599   -0.1777   -1.1710 O   0  0  0  0  0  0  0  0  0  0  0  0
    4.8709   -0.7663    1.4823 O   0  0  0  0  0  0  0  0  0  0  0  0
    1.4342   -4.2437    0.9085 O   0  0  0  0  0  0  0  0  0  0  0  0
    0.5510    1.7452    0.6693 N   0  0  0  0  0  0  0  0  0  0  0  0
    3.3135    0.8266    0.8216 N   0  0  0  0  0  0  0  0  0  0  0  0
   -3.5798    3.7991   -1.2544 N   0  0  0  0  0  0  0  0  0  0  0  0
    0.3082   -1.7936    0.3729 N   0  0  0  0  0  0  0  0  0  0  0  0
    5.4767    0.7715   -0.1174 N   0  0  0  0  0  0  0  0  0  0  0  0
   -3.5455   -0.7337   -1.7854 N   0  0  0  0  0  0  0  0  0  0  0  0
    1.4562   -4.6863   -1.3454 N   0  0  0  0  0  0  0  0  0  0  0  0
   -1.0742    3.5543    0.2501 C   0  0  0  0  0  0  0  0  0  0  0  0
    0.8837    0.4012    1.1463 C   0  0  2  0  0  0  0  0  0  0  0  0
    1.6692    2.6770    0.4807 C   0  0  0  0  0  0  0  0  0  0  0  0
   -2.3812    4.0154    0.8985 C   0  0  0  0  0  0  0  0  0  0  0  0
   -1.1064    3.7761   -1.2635 C   0  0  0  0  0  0  0  0  0  0  0  0
    2.2905    0.3073    1.7332 C   0  0  0  0  0  0  0  0  0  0  0  0
   -0.7952    2.1137    0.5744 C   0  0  0  0  0  0  0  0  0  0  0  0
    2.9394    1.9839    0.0003 C   0  0  0  0  0  0  0  0  0  0  0  0
   -3.6122    3.4727    0.1708 C   0  0  0  0  0  0  0  0  0  0  0  0
   -2.3911    3.2434   -1.9002 C   0  0  0  0  0  0  0  0  0  0  0  0
    0.7354   -0.5360   -0.0178 C   0  0  0  0  0  0  0  0  0  0  0  0
    4.5768    0.2072    0.7821 C   0  0  0  0  0  0  0  0  0  0  0  0
    0.0669   -2.8715   -0.5589 C   0  0  2  0  0  0  0  0  0  0  0  0
   -1.3694   -3.4004   -0.4742 C   0  0  0  0  0  0  0  0  0  0  0  0
    6.8151    0.2552   -0.2914 C   0  0  0  0  0  0  0  0  0  0  0  0
   -2.4012   -2.3371   -0.7626 C   0  0  0  0  0  0  0  0  0  0  0  0
    1.0592   -3.9776   -0.2309 C   0  0  0  0  0  0  0  0  0  0  0  0
   -3.4657   -1.9358    0.0923 C   0  0  0  0  0  0  0  0  0  0  0  0
   -2.4767   -1.5801   -1.9090 C   0  0  0  0  0  0  0  0  0  0  0  0
   -4.1682   -0.9289   -0.5731 C   0  0  0  0  0  0  0  0  0  0  0  0
    7.7742    1.3817   -0.6532 C   0  0  0  0  0  0  0  0  0  0  0  0
    6.8312   -0.8438   -1.3467 C   0  0  0  0  0  0  0  0  0  0  0  0
   -3.9003   -2.3340    1.3721 C   0  0  0  0  0  0  0  0  0  0  0  0
   -5.2881   -0.2976   -0.0204 C   0  0  0  0  0  0  0  0  0  0  0  0
   -5.0191   -1.7112    1.9376 C   0  0  0  0  0  0  0  0  0  0  0  0
   -5.7008   -0.7089    1.2502 C   0  0  0  0  0  0  0  0  0  0  0  0
   -0.2960    4.1821    0.6959 H   0  0  0  0  0  0  0  0  0  0  0  0
    0.1536    0.1306    1.9197 H   0  0  0  0  0  0  0  0  0  0  0  0
    1.8445    3.1545    1.4526 H   0  0  0  0  0  0  0  0  0  0  0  0
    1.4208    3.4641   -0.2332 H   0  0  0  0  0  0  0  0  0  0  0  0
    2.3565    0.9125    2.6459 H   0  0  0  0  0  0  0  0  0  0  0  0
    2.5254   -0.7255    2.0131 H   0  0  0  0  0  0  0  0  0  0  0  0
   -2.4172    5.1130    0.8834 H   0  0  0  0  0  0  0  0  0  0  0  0
   -2.4194    3.7146    1.9527 H   0  0  0  0  0  0  0  0  0  0  0  0
   -0.2504    3.3001   -1.7551 H   0  0  0  0  0  0  0  0  0  0  0  0
   -1.0290    4.8525   -1.4658 H   0  0  0  0  0  0  0  0  0  0  0  0
    2.8234    1.6286   -1.0296 H   0  0  0  0  0  0  0  0  0  0  0  0
    3.7589    2.7104    0.0094 H   0  0  0  0  0  0  0  0  0  0  0  0
   -3.7479    2.3977    0.3126 H   0  0  0  0  0  0  0  0  0  0  0  0
   -4.5017    3.9430    0.6064 H   0  0  0  0  0  0  0  0  0  0  0  0
   -2.4043    3.5226   -2.9596 H   0  0  0  0  0  0  0  0  0  0  0  0
   -2.4152    2.1483   -1.8630 H   0  0  0  0  0  0  0  0  0  0  0  0
   -4.4142    3.4238   -1.7045 H   0  0  0  0  0  0  0  0  0  0  0  0
    0.1889   -1.9920    1.3624 H   0  0  0  0  0  0  0  0  0  0  0  0
    0.2700   -2.5097   -1.5743 H   0  0  0  0  0  0  0  0  0  0  0  0
   -1.5455   -3.8309    0.5195 H   0  0  0  0  0  0  0  0  0  0  0  0
   -1.5067   -4.2219   -1.1893 H   0  0  0  0  0  0  0  0  0  0  0  0
    5.1646    1.4770   -0.7742 H   0  0  0  0  0  0  0  0  0  0  0  0
    7.1437   -0.1792    0.6604 H   0  0  0  0  0  0  0  0  0  0  0  0
   -1.8679   -1.5657   -2.8023 H   0  0  0  0  0  0  0  0  0  0  0  0
    7.7704    2.1578    0.1201 H   0  0  0  0  0  0  0  0  0  0  0  0
    8.7985    1.0078   -0.7529 H   0  0  0  0  0  0  0  0  0  0  0  0
    7.4912    1.8578   -1.5988 H   0  0  0  0  0  0  0  0  0  0  0  0
    7.8392   -1.2527   -1.4709 H   0  0  0  0  0  0  0  0  0  0  0  0
    6.4938   -0.4655   -2.3182 H   0  0  0  0  0  0  0  0  0  0  0  0
    6.1654   -1.6673   -1.0660 H   0  0  0  0  0  0  0  0  0  0  0  0
   -3.8354   -0.0612   -2.4820 H   0  0  0  0  0  0  0  0  0  0  0  0
   -3.3821   -3.1127    1.9240 H   0  0  0  0  0  0  0  0  0  0  0  0
    1.1204   -4.4699   -2.2784 H   0  0  0  0  0  0  0  0  0  0  0  0
    2.1067   -5.4608   -1.2648 H   0  0  0  0  0  0  0  0  0  0  0  0
   -5.8183    0.4840   -0.5541 H   0  0  0  0  0  0  0  0  0  0  0  0
   -5.3586   -2.0137    2.9247 H   0  0  0  0  0  0  0  0  0  0  0  0
   -6.5667   -0.2380    1.7084 H   0  0  0  0  0  0  0  0  0  0  0  0
  1 18  2  0  0  0  0
  2 22  2  0  0  0  0
  3 23  2  0  0  0  0
  4 28  2  0  0  0  0
  5 13  1  0  0  0  0
  5 14  1  0  0  0  0
  5 18  1  0  0  0  0
  6 17  1  0  0  0  0
  6 19  1  0  0  0  0
  6 23  1  0  0  0  0
  7 20  1  0  0  0  0
  7 21  1  0  0  0  0
  7 54  1  0  0  0  0
  8 22  1  0  0  0  0
  8 24  1  0  0  0  0
  8 55  1  0  0  0  0
  9 23  1  0  0  0  0
  9 26  1  0  0  0  0
  9 59  1  0  0  0  0
 10 30  1  0  0  0  0
 10 31  1  0  0  0  0
 10 68  1  0  0  0  0
 11 28  1  0  0  0  0
 11 70  1  0  0  0  0
 11 71  1  0  0  0  0
 12 15  1  0  0  0  0
 12 16  1  0  0  0  0
 12 18  1  0  0  0  0
 12 38  1  0  0  0  0
 13 17  1  0  0  0  0
 13 22  1  0  0  0  0
 13 39  1  0  0  0  0
 14 19  1  0  0  0  0
 14 40  1  0  0  0  0
 14 41  1  0  0  0  0
 15 20  1  0  0  0  0
 15 44  1  0  0  0  0
 15 45  1  0  0  0  0
 16 21  1  0  0  0  0
 16 46  1  0  0  0  0
 16 47  1  0  0  0  0
 17 42  1  0  0  0  0
 17 43  1  0  0  0  0
 19 48  1  0  0  0  0
 19 49  1  0  0  0  0
 20 50  1  0  0  0  0
 20 51  1  0  0  0  0
 21 52  1  0  0  0  0
 21 53  1  0  0  0  0
 24 25  1  0  0  0  0
 24 28  1  0  0  0  0
 24 56  1  0  0  0  0
 25 27  1  0  0  0  0
 25 57  1  0  0  0  0
 25 58  1  0  0  0  0
 26 32  1  0  0  0  0
 26 33  1  0  0  0  0
 26 60  1  0  0  0  0
 27 29  1  0  0  0  0
 27 30  2  0  0  0  0
 29 31  1  0  0  0  0
 29 34  2  0  0  0  0
 30 61  1  0  0  0  0
 31 35  2  0  0  0  0
 32 62  1  0  0  0  0
 32 63  1  0  0  0  0
 32 64  1  0  0  0  0
 33 65  1  0  0  0  0
 33 66  1  0  0  0  0
 33 67  1  0  0  0  0
 34 36  1  0  0  0  0
 34 69  1  0  0  0  0
 35 37  1  0  0  0  0
 35 72  1  0  0  0  0
 36 37  2  0  0  0  0
 36 73  1  0  0  0  0
 37 74  1  0  0  0  0
M  END
> <PUBCHEM_COMPOUND_CID>
25391134

> <PUBCHEM_CONFORMER_RMSD>
1.2

> <PUBCHEM_CONFORMER_DIVERSEORDER>
1
95
78
2
59
55
97
43
38
14
86
131
113
139
153
83
137
150
84
67
152
110
147
125
143
90
50
40
144
119
33
145
138
96
52
133
77
149
58
82
93
49
120
31
129
123
53
39
127
18
44
24
29
47
135
130
148
109
45
28
112
146
75
99
3
151
103
54
69
132
115
107
116
141
118
154
57
134
155
23
128
35
17
89
121
7
71
34
105
20
124
72
41
98
140
63
102
32
117
101
85
27
79
114
25
74
80
136
65
13
26
106
88
61
37
15
81
36
56
70
122
42
4
46
64
10
60
6
68
91
104
92
11
100
142
51
108
62
19
30
111
48
87
9
8
16
94
76
66
5
22
21
73
126
12

> <PUBCHEM_MMFF94_PARTIAL_CHARGES>
43
1 -0.57
10 0.03
11 -0.8
12 0.06
13 0.36
14 0.3
17 0.3
18 0.57
19 0.3
2 -0.57
20 0.27
21 0.27
22 0.57
23 0.69
24 0.36
25 0.18
26 0.3
27 -0.18
28 0.57
3 -0.57
30 -0.3
31 -0.15
34 -0.15
35 -0.15
36 -0.15
37 -0.15
4 -0.57
5 -0.66
54 0.36
55 0.37
59 0.37
6 -0.66
61 0.15
68 0.27
69 0.15
7 -0.9
70 0.37
71 0.37
72 0.15
73 0.15
74 0.15
8 -0.73
9 -0.73

> <PUBCHEM_EFFECTIVE_ROTOR_COUNT>
13.4

> <PUBCHEM_PHARMACOPHORE_FEATURES>
16
1 1 acceptor
1 10 cation
1 10 donor
1 11 donor
1 2 acceptor
1 3 acceptor
1 4 acceptor
1 7 cation
1 7 donor
1 8 donor
1 9 donor
3 26 32 33 hydrophobe
5 10 27 29 30 31 rings
6 29 31 34 35 36 37 rings
6 5 6 13 14 17 19 rings
6 7 12 15 16 20 21 rings

> <PUBCHEM_HEAVY_ATOM_COUNT>
37

> <PUBCHEM_ATOM_DEF_STEREO_COUNT>
2

> <PUBCHEM_ATOM_UDEF_STEREO_COUNT>
0

> <PUBCHEM_BOND_DEF_STEREO_COUNT>
0

> <PUBCHEM_BOND_UDEF_STEREO_COUNT>
0

> <PUBCHEM_ISOTOPIC_ATOM_COUNT>
0

> <PUBCHEM_COMPONENT_COUNT>
1

> <PUBCHEM_CACTVS_TAUTO_COUNT>
8

> <PUBCHEM_CONFORMER_ID>
0183701E00000001

> <PUBCHEM_MMFF94_ENERGY>
68.2125

> <PUBCHEM_FEATURE_SELFOVERLAP>
81.29

> <PUBCHEM_SHAPE_FINGERPRINT>
10190108 129 18337969929882462659
12058002 1 17459495306508629378
12156800 1 18118994467102754661
12422481 6 17917717936724383508
12522641 33 18046056057489530789
12788726 201 18410288142957989434
14017579 153 18201722829809073167
14117953 113 18412826898169028093
14279260 333 18041268907940433490
14856354 85 18337394953847175599
14930077 153 18115315604360015652
14955137 171 18120383304817631211
15276724 80 18340770455182595444
15361156 5 18057042626506798284
16628084 112 18408043988339591050
18603816 31 15770056138530040950
19311894 1 18125717030981222782
20764821 26 18053372211526782733
21796203 349 18048913902335499961
25223398 141 18408600366613358372
469060 322 18262818306103708369
5265222 85 18339363071482124204
70251023 43 16754373337060123778
7226269 152 18339080492593323582

> <PUBCHEM_SHAPE_MULTIPOLES>
703.1
13.43
6.14
1.63
22.44
0.37
-0.16
-0.28
0.03
-4.32
-1.41
-0.91
-0.09
1.18

> <PUBCHEM_SHAPE_SELFOVERLAP>
1484.757

> <PUBCHEM_SHAPE_VOLUME>
389

> <PUBCHEM_COORDINATE_TYPE>
2
5
10

$$$$
