7682240
  -OEChem-12032416113D

 46 50  0     1  0  0  0  0  0999 V2000
   -4.1340    0.2894   -0.5632 S   0  0  0  0  0  0  0  0  0  0  0  0
    0.3740   -3.1192    2.6671 O   0  0  0  0  0  0  0  0  0  0  0  0
    3.6786   -0.4574   -0.0782 O   0  0  0  0  0  0  0  0  0  0  0  0
    1.7309   -0.5983   -1.3639 N   0  0  0  0  0  0  0  0  0  0  0  0
   -0.1902   -2.1054    0.6324 N   0  0  0  0  0  0  0  0  0  0  0  0
    1.5870    3.8540    1.0582 N   0  0  0  0  0  0  0  0  0  0  0  0
    0.8327   -2.8999   -1.5834 C   0  0  1  0  0  0  0  0  0  0  0  0
   -0.7171   -0.9896   -1.5566 C   0  0  2  0  0  0  0  0  0  0  0  0
   -0.4425   -2.3474   -2.2017 C   0  0  0  0  0  0  0  0  0  0  0  0
    2.0148   -1.9503   -1.8403 C   0  0  0  0  0  0  0  0  0  0  0  0
    0.5905   -3.1214   -0.0895 C   0  0  0  0  0  0  0  0  0  0  0  0
    0.4613   -0.0330   -1.8433 C   0  0  0  0  0  0  0  0  0  0  0  0
   -0.9333   -1.1157   -0.0443 C   0  0  0  0  0  0  0  0  0  0  0  0
   -1.7708   -0.3022    0.6539 C   0  0  0  0  0  0  0  0  0  0  0  0
   -0.2428   -2.2661    2.0283 C   0  0  0  0  0  0  0  0  0  0  0  0
    2.6167    0.0185   -0.4773 C   0  0  0  0  0  0  0  0  0  0  0  0
   -1.8449   -0.4382    2.0975 C   0  0  0  0  0  0  0  0  0  0  0  0
   -1.1276   -1.3390    2.7680 C   0  0  0  0  0  0  0  0  0  0  0  0
   -2.5612    0.6926   -0.0196 C   0  0  0  0  0  0  0  0  0  0  0  0
    2.2620    1.3407    0.0520 C   0  0  0  0  0  0  0  0  0  0  0  0
   -2.2309    1.9971   -0.3137 C   0  0  0  0  0  0  0  0  0  0  0  0
    1.5313    1.4431    1.2276 C   0  0  0  0  0  0  0  0  0  0  0  0
    2.6575    2.4866   -0.6237 C   0  0  0  0  0  0  0  0  0  0  0  0
   -3.2832    2.6749   -0.9943 C   0  0  0  0  0  0  0  0  0  0  0  0
   -4.3775    1.8623   -1.1944 C   0  0  0  0  0  0  0  0  0  0  0  0
    1.2216    2.7136    1.6856 C   0  0  0  0  0  0  0  0  0  0  0  0
    2.2972    3.7104   -0.0830 C   0  0  0  0  0  0  0  0  0  0  0  0
    1.0769   -3.8654   -2.0434 H   0  0  0  0  0  0  0  0  0  0  0  0
   -1.6080   -0.5851   -2.0478 H   0  0  0  0  0  0  0  0  0  0  0  0
   -1.2833   -3.0330   -2.0375 H   0  0  0  0  0  0  0  0  0  0  0  0
   -0.3245   -2.2384   -3.2868 H   0  0  0  0  0  0  0  0  0  0  0  0
    2.9247   -2.3439   -1.3748 H   0  0  0  0  0  0  0  0  0  0  0  0
    2.2092   -1.8761   -2.9173 H   0  0  0  0  0  0  0  0  0  0  0  0
    0.0349   -4.0610    0.0370 H   0  0  0  0  0  0  0  0  0  0  0  0
    1.5450   -3.2665    0.4324 H   0  0  0  0  0  0  0  0  0  0  0  0
    0.5693    0.1097   -2.9258 H   0  0  0  0  0  0  0  0  0  0  0  0
    0.2756    0.9532   -1.4156 H   0  0  0  0  0  0  0  0  0  0  0  0
   -2.5007    0.2348    2.6424 H   0  0  0  0  0  0  0  0  0  0  0  0
   -1.1855   -1.4266    3.8463 H   0  0  0  0  0  0  0  0  0  0  0  0
   -1.2849    2.4550   -0.0570 H   0  0  0  0  0  0  0  0  0  0  0  0
    1.2212    0.5667    1.7840 H   0  0  0  0  0  0  0  0  0  0  0  0
    3.2283    2.4371   -1.5447 H   0  0  0  0  0  0  0  0  0  0  0  0
   -3.2398    3.7059   -1.3203 H   0  0  0  0  0  0  0  0  0  0  0  0
   -5.3082    2.1173   -1.6812 H   0  0  0  0  0  0  0  0  0  0  0  0
    0.6542    2.8508    2.6002 H   0  0  0  0  0  0  0  0  0  0  0  0
    2.5797    4.6375   -0.5707 H   0  0  0  0  0  0  0  0  0  0  0  0
  1 19  1  0  0  0  0
  1 25  1  0  0  0  0
  2 15  2  0  0  0  0
  3 16  2  0  0  0  0
  4 10  1  0  0  0  0
  4 12  1  0  0  0  0
  4 16  1  0  0  0  0
  5 11  1  0  0  0  0
  5 13  1  0  0  0  0
  5 15  1  0  0  0  0
  6 26  2  0  0  0  0
  6 27  1  0  0  0  0
  7  9  1  0  0  0  0
  7 10  1  0  0  0  0
  7 11  1  0  0  0  0
  7 28  1  0  0  0  0
  8  9  1  0  0  0  0
  8 12  1  0  0  0  0
  8 13  1  0  0  0  0
  8 29  1  0  0  0  0
  9 30  1  0  0  0  0
  9 31  1  0  0  0  0
 10 32  1  0  0  0  0
 10 33  1  0  0  0  0
 11 34  1  0  0  0  0
 11 35  1  0  0  0  0
 12 36  1  0  0  0  0
 12 37  1  0  0  0  0
 13 14  2  0  0  0  0
 14 17  1  0  0  0  0
 14 19  1  0  0  0  0
 15 18  1  0  0  0  0
 16 20  1  0  0  0  0
 17 18  2  0  0  0  0
 17 38  1  0  0  0  0
 18 39  1  0  0  0  0
 19 21  2  0  0  0  0
 20 22  2  0  0  0  0
 20 23  1  0  0  0  0
 21 24  1  0  0  0  0
 21 40  1  0  0  0  0
 22 26  1  0  0  0  0
 22 41  1  0  0  0  0
 23 27  2  0  0  0  0
 23 42  1  0  0  0  0
 24 25  2  0  0  0  0
 24 43  1  0  0  0  0
 25 44  1  0  0  0  0
 26 45  1  0  0  0  0
 27 46  1  0  0  0  0
M  END
> <PUBCHEM_COMPOUND_CID>
7682240

> <PUBCHEM_CONFORMER_RMSD>
0.8

> <PUBCHEM_CONFORMER_DIVERSEORDER>
1
6
5
4
3
2

> <PUBCHEM_MMFF94_PARTIAL_CHARGES>
34
1 -0.08
10 0.3
11 0.3
12 0.3
13 -0.03
14 0.05
15 0.62
16 0.54
17 -0.15
18 -0.14
19 -0.01
2 -0.57
20 0.09
21 -0.15
22 -0.15
23 -0.15
24 -0.15
25 -0.11
26 0.16
27 0.16
3 -0.57
38 0.15
39 0.15
4 -0.66
40 0.15
41 0.15
42 0.15
43 0.15
44 0.15
45 0.15
46 0.15
5 -0.47
6 -0.62
8 0.14

> <PUBCHEM_EFFECTIVE_ROTOR_COUNT>
4

> <PUBCHEM_PHARMACOPHORE_FEATURES>
8
1 2 acceptor
1 3 acceptor
1 6 acceptor
5 1 19 21 24 25 rings
6 4 7 8 9 10 12 rings
6 5 13 14 15 17 18 rings
6 5 7 8 9 11 13 rings
6 6 20 22 23 26 27 rings

> <PUBCHEM_HEAVY_ATOM_COUNT>
27

> <PUBCHEM_ATOM_DEF_STEREO_COUNT>
2

> <PUBCHEM_ATOM_UDEF_STEREO_COUNT>
0

> <PUBCHEM_BOND_DEF_STEREO_COUNT>
0

> <PUBCHEM_BOND_UDEF_STEREO_COUNT>
0

> <PUBCHEM_ISOTOPIC_ATOM_COUNT>
0

> <PUBCHEM_COMPONENT_COUNT>
1

> <PUBCHEM_CACTVS_TAUTO_COUNT>
1

> <PUBCHEM_CONFORMER_ID>
007538C000000001

> <PUBCHEM_MMFF94_ENERGY>
76.5407

> <PUBCHEM_FEATURE_SELFOVERLAP>
42.182

> <PUBCHEM_SHAPE_FINGERPRINT>
10165383 225 17477814428410059212
107951 10 18114463469535948552
10871710 139 16969703875855034317
11221954 11 18337112375047857093
11582403 64 18261374655783818503
11725454 13 18260537927461207903
12156800 1 15043501177782434920
12539773 59 14530184553586067445
12788726 201 17471547285409690061
128993 33 17337898344292388048
1361 2 17982722276131023933
14142880 1 17048804911183075673
14251764 3 18336553801982134355
14468879 13 18050841418974653201
16945 1 18267887011198933103
17974551 9 17603583049832563664
17980427 23 17620141592041759971
19930381 70 18273493485920017389
20691752 17 17026577858959006901
20905425 154 17760067541515051037
21860390 5 17904451070884453317
23419403 2 18050607094428083979
238 59 18272089417834020045
2803657 2 16676704320656431300
3052486 1 16177342371907885033
35225 105 17460577350298209825
445580 44 16829507343168250240
469060 322 16539603549046887640
513532 50 17622123946914144597
57527295 17 17904500505963480703
5895379 119 16977287749060523665

> <PUBCHEM_SHAPE_MULTIPOLES>
532.82
5.18
4.67
2.48
4.3
1.94
-1.25
4.04
1.96
-2.67
-0.54
0.2
-1.88
1.47

> <PUBCHEM_SHAPE_SELFOVERLAP>
1171.454

> <PUBCHEM_SHAPE_VOLUME>
287.9

> <PUBCHEM_COORDINATE_TYPE>
2
5
10

$$$$
