75367110
  -OEChem-12032416403D

 48 50  0     1  0  0  0  0  0999 V2000
   -0.0944    0.5262   -0.9091 O   0  0  0  0  0  0  0  0  0  0  0  0
   -1.3289   -2.4064    0.7585 O   0  0  0  0  0  0  0  0  0  0  0  0
    3.2190   -1.5993    1.2145 O   0  0  0  0  0  0  0  0  0  0  0  0
   -3.5234   -0.6621   -0.6619 N   0  0  0  0  0  0  0  0  0  0  0  0
    2.4930   -0.7257   -0.8085 N   0  0  0  0  0  0  0  0  0  0  0  0
    6.8666    1.6318    0.1044 N   0  0  0  0  0  0  0  0  0  0  0  0
   -2.1904   -0.3274   -0.1879 C   0  0  1  0  0  0  0  0  0  0  0  0
   -4.4955    0.3357   -0.2194 C   0  0  0  0  0  0  0  0  0  0  0  0
   -1.2004   -1.4724   -0.2958 C   0  0  1  0  0  0  0  0  0  0  0  0
   -5.7439    0.2757   -1.1066 C   0  0  0  0  0  0  0  0  0  0  0  0
   -4.8513    0.0995    1.2524 C   0  0  0  0  0  0  0  0  0  0  0  0
    0.1234   -0.7226   -0.2316 C   0  0  1  0  0  0  0  0  0  0  0  0
   -1.5117    0.7376   -1.0337 C   0  0  0  0  0  0  0  0  0  0  0  0
   -6.8154    1.2532   -0.6265 C   0  0  0  0  0  0  0  0  0  0  0  0
   -5.9234    1.0778    1.7295 C   0  0  0  0  0  0  0  0  0  0  0  0
   -7.1641    1.0294    0.8423 C   0  0  0  0  0  0  0  0  0  0  0  0
    1.2695   -1.4703   -0.8894 C   0  0  0  0  0  0  0  0  0  0  0  0
    3.3832   -0.8522    0.2536 C   0  0  0  0  0  0  0  0  0  0  0  0
    4.5930    0.0084    0.2018 C   0  0  0  0  0  0  0  0  0  0  0  0
    5.2274    0.3924    1.3781 C   0  0  0  0  0  0  0  0  0  0  0  0
    5.0941    0.4351   -1.0231 C   0  0  0  0  0  0  0  0  0  0  0  0
    6.3504    1.1975    1.2761 C   0  0  0  0  0  0  0  0  0  0  0  0
    6.2232    1.2382   -1.0176 C   0  0  0  0  0  0  0  0  0  0  0  0
   -2.2000   -0.0095    0.8612 H   0  0  0  0  0  0  0  0  0  0  0  0
   -4.0809    1.3468   -0.3272 H   0  0  0  0  0  0  0  0  0  0  0  0
   -1.3098   -2.0003   -1.2513 H   0  0  0  0  0  0  0  0  0  0  0  0
   -3.7953   -1.5844   -0.3230 H   0  0  0  0  0  0  0  0  0  0  0  0
   -6.1608   -0.7402   -1.1049 H   0  0  0  0  0  0  0  0  0  0  0  0
   -5.4808    0.5092   -2.1457 H   0  0  0  0  0  0  0  0  0  0  0  0
   -5.2218   -0.9250    1.3926 H   0  0  0  0  0  0  0  0  0  0  0  0
   -3.9819    0.2110    1.9081 H   0  0  0  0  0  0  0  0  0  0  0  0
    0.3871   -0.4884    0.8082 H   0  0  0  0  0  0  0  0  0  0  0  0
   -1.7591    0.6447   -2.0976 H   0  0  0  0  0  0  0  0  0  0  0  0
   -1.7535    1.7547   -0.7112 H   0  0  0  0  0  0  0  0  0  0  0  0
   -7.7165    1.1422   -1.2401 H   0  0  0  0  0  0  0  0  0  0  0  0
   -6.4595    2.2816   -0.7647 H   0  0  0  0  0  0  0  0  0  0  0  0
   -5.5143    2.0957    1.7307 H   0  0  0  0  0  0  0  0  0  0  0  0
   -6.2019    0.8442    2.7633 H   0  0  0  0  0  0  0  0  0  0  0  0
   -7.8822    1.7892    1.1707 H   0  0  0  0  0  0  0  0  0  0  0  0
   -7.6553    0.0551    0.9556 H   0  0  0  0  0  0  0  0  0  0  0  0
    1.0705   -1.6181   -1.9566 H   0  0  0  0  0  0  0  0  0  0  0  0
    1.4091   -2.4514   -0.4230 H   0  0  0  0  0  0  0  0  0  0  0  0
   -1.2333   -1.9316    1.6014 H   0  0  0  0  0  0  0  0  0  0  0  0
    2.6572   -0.0397   -1.5374 H   0  0  0  0  0  0  0  0  0  0  0  0
    4.8664    0.0853    2.3537 H   0  0  0  0  0  0  0  0  0  0  0  0
    4.6624    0.1476   -1.9748 H   0  0  0  0  0  0  0  0  0  0  0  0
    6.8810    1.5257    2.1639 H   0  0  0  0  0  0  0  0  0  0  0  0
    6.6580    1.5921   -1.9466 H   0  0  0  0  0  0  0  0  0  0  0  0
  1 12  1  0  0  0  0
  1 13  1  0  0  0  0
  2  9  1  0  0  0  0
  2 43  1  0  0  0  0
  3 18  2  0  0  0  0
  4  7  1  0  0  0  0
  4  8  1  0  0  0  0
  4 27  1  0  0  0  0
  5 17  1  0  0  0  0
  5 18  1  0  0  0  0
  5 44  1  0  0  0  0
  6 22  2  0  0  0  0
  6 23  1  0  0  0  0
  7  9  1  0  0  0  0
  7 13  1  0  0  0  0
  7 24  1  0  0  0  0
  8 10  1  0  0  0  0
  8 11  1  0  0  0  0
  8 25  1  0  0  0  0
  9 12  1  0  0  0  0
  9 26  1  0  0  0  0
 10 14  1  0  0  0  0
 10 28  1  0  0  0  0
 10 29  1  0  0  0  0
 11 15  1  0  0  0  0
 11 30  1  0  0  0  0
 11 31  1  0  0  0  0
 12 17  1  0  0  0  0
 12 32  1  0  0  0  0
 13 33  1  0  0  0  0
 13 34  1  0  0  0  0
 14 16  1  0  0  0  0
 14 35  1  0  0  0  0
 14 36  1  0  0  0  0
 15 16  1  0  0  0  0
 15 37  1  0  0  0  0
 15 38  1  0  0  0  0
 16 39  1  0  0  0  0
 16 40  1  0  0  0  0
 17 41  1  0  0  0  0
 17 42  1  0  0  0  0
 18 19  1  0  0  0  0
 19 20  2  0  0  0  0
 19 21  1  0  0  0  0
 20 22  1  0  0  0  0
 20 45  1  0  0  0  0
 21 23  2  0  0  0  0
 21 46  1  0  0  0  0
 22 47  1  0  0  0  0
 23 48  1  0  0  0  0
M  END
> <PUBCHEM_COMPOUND_CID>
75367110

> <PUBCHEM_CONFORMER_RMSD>
0.8

> <PUBCHEM_CONFORMER_DIVERSEORDER>
1
108
81
70
140
73
155
41
74
123
46
79
105
87
88
99
75
157
100
146
97
25
131
113
104
92
50
152
84
64
45
7
23
93
124
17
121
119
153
149
42
78
160
3
125
135
82
110
37
31
96
12
89
20
57
102
38
133
138
11
16
36
111
29
120
9
132
67
143
10
159
94
151
58
137
85
68
95
30
161
61
109
136
80
150
52
148
106
145
65
26
107
69
154
142
134
90
56
14
114
55
139
156
115
76
141
62
71
8
60
47
128
91
28
130
77
66
27
21
129
13
34
32
44
117
98
147
116
126
39
43
112
122
53
49
33
24
83
19
63
5
2
127
72
22
4
40
35
6
103
158
51
54
18
101
48
118
144
86
15
59

> <PUBCHEM_MMFF94_PARTIAL_CHARGES>
25
1 -0.56
12 0.28
13 0.28
17 0.3
18 0.54
19 0.09
2 -0.68
20 -0.15
21 -0.15
22 0.16
23 0.16
27 0.36
3 -0.57
4 -0.9
43 0.4
44 0.37
45 0.15
46 0.15
47 0.15
48 0.15
5 -0.73
6 -0.62
7 0.27
8 0.27
9 0.28

> <PUBCHEM_EFFECTIVE_ROTOR_COUNT>
8.2

> <PUBCHEM_PHARMACOPHORE_FEATURES>
11
1 1 acceptor
1 2 acceptor
1 2 donor
1 3 acceptor
1 4 cation
1 4 donor
1 5 donor
1 6 acceptor
5 1 7 9 12 13 rings
6 6 19 20 21 22 23 rings
6 8 10 11 14 15 16 rings

> <PUBCHEM_HEAVY_ATOM_COUNT>
23

> <PUBCHEM_ATOM_DEF_STEREO_COUNT>
3

> <PUBCHEM_ATOM_UDEF_STEREO_COUNT>
0

> <PUBCHEM_BOND_DEF_STEREO_COUNT>
0

> <PUBCHEM_BOND_UDEF_STEREO_COUNT>
0

> <PUBCHEM_ISOTOPIC_ATOM_COUNT>
0

> <PUBCHEM_COMPONENT_COUNT>
1

> <PUBCHEM_CACTVS_TAUTO_COUNT>
2

> <PUBCHEM_CONFORMER_ID>
047E02C600000001

> <PUBCHEM_MMFF94_ENERGY>
40.2475

> <PUBCHEM_FEATURE_SELFOVERLAP>
55.822

> <PUBCHEM_SHAPE_FINGERPRINT>
10 15 17458067070683517557
10554248 39 17773585019287170783
106641 1 18260272975656221035
10670039 82 14117527510438375227
10753850 27 10809344446698670383
10906281 52 18340217348534204127
117890 112 18343019990825465222
11991303 11 13398335898354627229
12166972 35 13038900058012552227
125118 31 18262516992414815493
12555020 224 10519981565281426525
12596602 18 15936407840533050988
12670543 26 12967132692236854971
12760667 363 8358261449288283959
13533116 47 18341332172200957622
13668630 136 9727629506041409221
13673619 4 8070029964829781670
13685833 64 11818994080416920772
13690498 29 15194702650291598221
13782708 43 10809343351592805719
13862211 1 8718827582929275949
14251752 14 13398631628042111509
14251764 18 18333732442450360607
14347332 77 10087655783652092558
14528608 73 16630522933935478062
14933364 13 16487257672980470305
15048467 5 18202282498301627489
15183329 4 14045749209338325706
15188451 53 12973602248423963462
15348495 7 16588033449784195657
15706992 2 17988096555627986401
15716309 27 13551194394377423133
16994733 274 18201436939959351929
1768 124 13623524654383016144
17980427 23 18188208818027797630
190975 80 16805611407800202761
2026 5 11530478948245728321
20281389 69 18343018861386248921
21033648 29 17845924247706079418
21150785 3 15554445210678458269
21424621 283 18200883881331125283
21637258 2 11963392963930850807
22061861 79 12175620668058897777
221357 26 14836406930567598170
2215653 11 12319736973132134316
22224240 67 18260268538860357387
23081809 10 17846771876349849023
23198884 109 16630529527221772453
29717793 49 9871748001009896658
300161 21 18410570691006844679
3004659 81 11600003258807495894
4058900 60 15984837999411041911
4340502 62 16515402958764445530
445580 37 16415484835574915505
465052 167 7997679926394263834
5104073 3 17678176199462711344
543368 44 17989487403793654977
559249 180 12757150178437076457
5758199 1 18342460327223560859
59682541 35 17531251694299957649
59682541 52 14189581823569538572
59755656 215 11167946852710306380
6438161 24 12319459853658645684

> <PUBCHEM_SHAPE_MULTIPOLES>
440.78
21.28
1.65
1.41
1.59
0.36
0.21
-13.88
1.79
-0.53
0.34
0.06
-0.2
-0.47

> <PUBCHEM_SHAPE_SELFOVERLAP>
917.575

> <PUBCHEM_SHAPE_VOLUME>
248.4

> <PUBCHEM_COORDINATE_TYPE>
2
5
10

$$$$
