75368489
  -OEChem-12032416393D

 51 54  0     1  0  0  0  0  0999 V2000
   -5.9782   -2.2513   -0.2764 O   0  0  0  0  0  0  0  0  0  0  0  0
   -3.0682    2.6918    0.4913 O   0  0  0  0  0  0  0  0  0  0  0  0
    3.8519    2.1497   -0.3026 O   0  0  0  0  0  0  0  0  0  0  0  0
    3.3231   -0.3260    1.8985 O   0  0  0  0  0  0  0  0  0  0  0  0
   -2.7565    0.3834    0.1245 N   0  0  0  0  0  0  0  0  0  0  0  0
   -0.9463    1.7057    0.2791 N   0  0  0  0  0  0  0  0  0  0  0  0
    1.6632    1.3980   -0.6263 N   0  0  0  0  0  0  0  0  0  0  0  0
   -0.4092    0.3594    0.1765 C   0  0  1  0  0  0  0  0  0  0  0  0
   -1.6322   -0.4966   -0.1417 C   0  0  0  0  0  0  0  0  0  0  0  0
   -4.1206   -0.0769    0.0482 C   0  0  0  0  0  0  0  0  0  0  0  0
    0.6954    0.3116   -0.8743 C   0  0  0  0  0  0  0  0  0  0  0  0
   -0.0442    2.8348    0.4257 C   0  0  0  0  0  0  0  0  0  0  0  0
   -2.3474    1.7169    0.3235 C   0  0  0  0  0  0  0  0  0  0  0  0
    1.0779    2.7459   -0.6073 C   0  0  0  0  0  0  0  0  0  0  0  0
   -4.4149   -0.7086   -1.3131 C   0  0  0  0  0  0  0  0  0  0  0  0
   -4.4258   -1.0691    1.1708 C   0  0  0  0  0  0  0  0  0  0  0  0
   -5.8150   -1.3083   -1.3354 C   0  0  0  0  0  0  0  0  0  0  0  0
   -5.8248   -1.6502    1.0091 C   0  0  0  0  0  0  0  0  0  0  0  0
    3.0406    1.2396   -0.4656 C   0  0  0  0  0  0  0  0  0  0  0  0
    3.5860   -0.1239   -0.4773 C   0  0  0  0  0  0  0  0  0  0  0  0
    3.7070   -0.8567    0.7033 C   0  0  0  0  0  0  0  0  0  0  0  0
    3.9869   -0.6841   -1.6902 C   0  0  0  0  0  0  0  0  0  0  0  0
    4.2289   -2.1498    0.6710 C   0  0  0  0  0  0  0  0  0  0  0  0
    4.5090   -1.9772   -1.7224 C   0  0  0  0  0  0  0  0  0  0  0  0
    4.6300   -2.7102   -0.5418 C   0  0  0  0  0  0  0  0  0  0  0  0
    3.4833   -1.1479    3.0529 C   0  0  0  0  0  0  0  0  0  0  0  0
   -0.0077    0.1040    1.1656 H   0  0  0  0  0  0  0  0  0  0  0  0
   -1.6672   -1.3881    0.4892 H   0  0  0  0  0  0  0  0  0  0  0  0
   -1.6495   -0.7918   -1.1952 H   0  0  0  0  0  0  0  0  0  0  0  0
   -4.7774    0.7936    0.1739 H   0  0  0  0  0  0  0  0  0  0  0  0
    1.1693   -0.6721   -0.8739 H   0  0  0  0  0  0  0  0  0  0  0  0
    0.2917    0.4804   -1.8804 H   0  0  0  0  0  0  0  0  0  0  0  0
    0.3675    2.7826    1.4400 H   0  0  0  0  0  0  0  0  0  0  0  0
   -0.6017    3.7715    0.3305 H   0  0  0  0  0  0  0  0  0  0  0  0
    0.6843    2.9351   -1.6131 H   0  0  0  0  0  0  0  0  0  0  0  0
    1.8402    3.5034   -0.4007 H   0  0  0  0  0  0  0  0  0  0  0  0
   -3.7065   -1.5206   -1.5161 H   0  0  0  0  0  0  0  0  0  0  0  0
   -4.3024    0.0294   -2.1154 H   0  0  0  0  0  0  0  0  0  0  0  0
   -4.3254   -0.5867    2.1498 H   0  0  0  0  0  0  0  0  0  0  0  0
   -3.7104   -1.8995    1.1468 H   0  0  0  0  0  0  0  0  0  0  0  0
   -6.5832   -0.5304   -1.2530 H   0  0  0  0  0  0  0  0  0  0  0  0
   -5.9796   -1.8358   -2.2803 H   0  0  0  0  0  0  0  0  0  0  0  0
   -5.9956   -2.4256    1.7627 H   0  0  0  0  0  0  0  0  0  0  0  0
   -6.5940   -0.8811    1.1462 H   0  0  0  0  0  0  0  0  0  0  0  0
    3.8972   -0.1226   -2.6166 H   0  0  0  0  0  0  0  0  0  0  0  0
    4.3531   -2.7789    1.5455 H   0  0  0  0  0  0  0  0  0  0  0  0
    4.8211   -2.4135   -2.6667 H   0  0  0  0  0  0  0  0  0  0  0  0
    5.0366   -3.7171   -0.5683 H   0  0  0  0  0  0  0  0  0  0  0  0
    4.5372   -1.3790    3.2417 H   0  0  0  0  0  0  0  0  0  0  0  0
    2.8606   -2.0473    2.9981 H   0  0  0  0  0  0  0  0  0  0  0  0
    3.1275   -0.5687    3.9115 H   0  0  0  0  0  0  0  0  0  0  0  0
  1 17  1  0  0  0  0
  1 18  1  0  0  0  0
  2 13  2  0  0  0  0
  3 19  2  0  0  0  0
  4 21  1  0  0  0  0
  4 26  1  0  0  0  0
  5  9  1  0  0  0  0
  5 10  1  0  0  0  0
  5 13  1  0  0  0  0
  6  8  1  0  0  0  0
  6 12  1  0  0  0  0
  6 13  1  0  0  0  0
  7 11  1  0  0  0  0
  7 14  1  0  0  0  0
  7 19  1  0  0  0  0
  8  9  1  0  0  0  0
  8 11  1  0  0  0  0
  8 27  1  0  0  0  0
  9 28  1  0  0  0  0
  9 29  1  0  0  0  0
 10 15  1  0  0  0  0
 10 16  1  0  0  0  0
 10 30  1  0  0  0  0
 11 31  1  0  0  0  0
 11 32  1  0  0  0  0
 12 14  1  0  0  0  0
 12 33  1  0  0  0  0
 12 34  1  0  0  0  0
 14 35  1  0  0  0  0
 14 36  1  0  0  0  0
 15 17  1  0  0  0  0
 15 37  1  0  0  0  0
 15 38  1  0  0  0  0
 16 18  1  0  0  0  0
 16 39  1  0  0  0  0
 16 40  1  0  0  0  0
 17 41  1  0  0  0  0
 17 42  1  0  0  0  0
 18 43  1  0  0  0  0
 18 44  1  0  0  0  0
 19 20  1  0  0  0  0
 20 21  1  0  0  0  0
 20 22  2  0  0  0  0
 21 23  2  0  0  0  0
 22 24  1  0  0  0  0
 22 45  1  0  0  0  0
 23 25  1  0  0  0  0
 23 46  1  0  0  0  0
 24 25  2  0  0  0  0
 24 47  1  0  0  0  0
 25 48  1  0  0  0  0
 26 49  1  0  0  0  0
 26 50  1  0  0  0  0
 26 51  1  0  0  0  0
M  END
> <PUBCHEM_COMPOUND_CID>
75368489

> <PUBCHEM_CONFORMER_RMSD>
0.8

> <PUBCHEM_CONFORMER_DIVERSEORDER>
1
37
12
88
119
43
99
93
8
61
83
46
60
73
55
100
29
114
111
115
26
102
24
103
74
57
38
65
76
113
116
95
33
84
53
109
4
118
10
94
14
97
16
104
32
39
98
64
58
52
72
96
117
6
3
2
27
112
42
86
20
56
80
25
77
17
21
105
30
34
28
15
44
41
75
36
108
59
48
101
106
11
81
85
54
62
67
79
107
90
49
89
70
19
78
87
50
71
22
68
40
5
7
66
110
69
23
18
51
45
82
9
35
92
13
63
91
31
47

> <PUBCHEM_MMFF94_PARTIAL_CHARGES>
28
1 -0.56
10 0.3
11 0.3
12 0.3
13 0.69
14 0.3
17 0.28
18 0.28
19 0.54
2 -0.57
20 0.09
21 0.08
22 -0.15
23 -0.15
24 -0.15
25 -0.15
26 0.28
3 -0.57
4 -0.36
45 0.15
46 0.15
47 0.15
48 0.15
5 -0.66
6 -0.66
7 -0.66
8 0.3
9 0.3

> <PUBCHEM_EFFECTIVE_ROTOR_COUNT>
6.4

> <PUBCHEM_PHARMACOPHORE_FEATURES>
8
1 1 acceptor
1 2 acceptor
1 3 acceptor
1 4 acceptor
5 5 6 8 9 13 rings
6 1 10 15 16 17 18 rings
6 20 21 22 23 24 25 rings
6 6 7 8 11 12 14 rings

> <PUBCHEM_HEAVY_ATOM_COUNT>
26

> <PUBCHEM_ATOM_DEF_STEREO_COUNT>
1

> <PUBCHEM_ATOM_UDEF_STEREO_COUNT>
0

> <PUBCHEM_BOND_DEF_STEREO_COUNT>
0

> <PUBCHEM_BOND_UDEF_STEREO_COUNT>
0

> <PUBCHEM_ISOTOPIC_ATOM_COUNT>
0

> <PUBCHEM_COMPONENT_COUNT>
1

> <PUBCHEM_CACTVS_TAUTO_COUNT>
1

> <PUBCHEM_CONFORMER_ID>
047E082900000001

> <PUBCHEM_MMFF94_ENERGY>
77.8933

> <PUBCHEM_FEATURE_SELFOVERLAP>
40.697

> <PUBCHEM_SHAPE_FINGERPRINT>
11069576 57 16951679195747708098
11545043 162 17845652530325476202
11720765 8 12468901054779524336
11796584 16 18113612409197835883
11991303 11 17825389584005475509
1200032 147 13110389269617719578
12422481 6 17489318451605396871
13150687 139 18048620372023958020
13533116 47 18341054107047861263
13692114 37 17770777910721440681
13782708 43 17773875299422234654
13955234 65 17983298424202512801
13965767 371 11959437926628124074
1420 369 18343023289518662703
14251740 57 18272089409291557982
14251764 75 13252793630084991626
14347332 77 18410857642599341437
14528608 73 10809340066317474439
14848178 5 18412819188307021439
14848178 96 8286199431175708343
14950920 106 15841547457740647367
15003188 105 17967808358466530930
15183329 4 16950834843847291615
15324115 91 16153421757990350930
15342816 4 18187363208113737944
15664445 248 17313670472456920492
16989713 51 15004685828285300946
17134984 74 17604146055515642571
17349148 13 18201446886845087543
17492 89 18412831256927577542
17810953 82 9871756779854464738
1813 80 18341890805453328869
18222031 100 18342455941434223839
193927 3 18410580565141750879
20028762 73 18273215300503718727
20567600 234 12679179449393158699
20626108 58 18408880711707429176
20645477 70 18261114109982021012
21279426 13 18333446530941205949
21703447 108 18337664325616816457
21968339 14 15357988888776115046
22061861 79 18040713688817621455
235170 7 14707225296081548056
23559900 14 18200030617290213348
239999 70 18260834847324891996
25222932 49 17910118241413549775
2838139 119 11965120318838198726
3004659 81 18260547826960060767
312423 11 18337124405145725693
312425 54 17132119052528450059
314194 84 18270685384651021375
345986 75 17703801331259886273
34797466 226 16588587651426928943
4017518 198 15302768837680300594
44062 13 18335985242844109877
46194498 28 17241330320957152877
5104073 3 18201726115184806640
59682541 52 16371267979759357803
633830 44 12396293747065030193
7970288 3 18338237059584956694
960060 61 16298385742946179710

> <PUBCHEM_SHAPE_MULTIPOLES>
496.65
13.71
3.11
1.73
12.53
1.3
-0.91
-11.86
1.1
-0.72
0.09
-1.74
-0.97
-0.4

> <PUBCHEM_SHAPE_SELFOVERLAP>
1059.06

> <PUBCHEM_SHAPE_VOLUME>
274

> <PUBCHEM_COORDINATE_TYPE>
2
5
10

$$$$
