45783369
  -OEChem-12032416203D

 58 61  0     1  0  0  0  0  0999 V2000
   -0.0410    3.9469   -0.3366 S   0  0  0  0  0  0  0  0  0  0  0  0
   -1.6919   -1.8623   -1.1041 O   0  0  0  0  0  0  0  0  0  0  0  0
   -0.1139    4.6063   -1.6333 O   0  0  0  0  0  0  0  0  0  0  0  0
    0.0364    4.7468    0.8775 O   0  0  0  0  0  0  0  0  0  0  0  0
    4.6035   -0.5777   -0.2413 O   0  0  0  0  0  0  0  0  0  0  0  0
    7.0478   -1.5115   -1.2351 O   0  0  0  0  0  0  0  0  0  0  0  0
   -4.4757   -1.1020   -0.4374 N   0  0  1  0  0  0  0  0  0  0  0  0
   -1.2358   -1.4694    1.0533 N   0  0  0  0  0  0  0  0  0  0  0  0
   -0.3177   -1.5998   -1.0381 N   0  0  0  0  0  0  0  0  0  0  0  0
    3.6712   -0.4440    1.8794 N   0  0  0  0  0  0  0  0  0  0  0  0
   -3.6361   -2.0099    0.3695 C   0  0  1  0  0  0  0  0  0  0  0  0
   -4.0676   -3.4250   -0.0578 C   0  0  0  0  0  0  0  0  0  0  0  0
   -5.1934   -3.2119   -1.0598 C   0  0  0  0  0  0  0  0  0  0  0  0
   -5.7129   -1.8286   -0.7239 C   0  0  0  0  0  0  0  0  0  0  0  0
   -4.7292    0.1767    0.2139 C   0  0  0  0  0  0  0  0  0  0  0  0
   -2.1552   -1.7650    0.1695 C   0  0  0  0  0  0  0  0  0  0  0  0
   -3.5614    1.1171    0.0765 C   0  0  0  0  0  0  0  0  0  0  0  0
   -2.9344    1.6216    1.2159 C   0  0  0  0  0  0  0  0  0  0  0  0
   -3.1061    1.4835   -1.1901 C   0  0  0  0  0  0  0  0  0  0  0  0
   -0.1253   -1.3778    0.2655 C   0  0  0  0  0  0  0  0  0  0  0  0
   -1.8526    2.4927    1.0887 C   0  0  0  0  0  0  0  0  0  0  0  0
   -2.0243    2.3547   -1.3174 C   0  0  0  0  0  0  0  0  0  0  0  0
   -1.3975    2.8592   -0.1780 C   0  0  0  0  0  0  0  0  0  0  0  0
    1.1623   -1.0612    0.8126 C   0  0  0  0  0  0  0  0  0  0  0  0
    2.2729   -0.9761   -0.0197 C   0  0  0  0  0  0  0  0  0  0  0  0
    1.3803    2.8783   -0.3788 C   0  0  0  0  0  0  0  0  0  0  0  0
    1.3047   -0.8381    2.1777 C   0  0  0  0  0  0  0  0  0  0  0  0
    3.4940   -0.6674    0.5578 C   0  0  0  0  0  0  0  0  0  0  0  0
    2.5690   -0.5355    2.6569 C   0  0  0  0  0  0  0  0  0  0  0  0
    5.8314   -0.2581    0.4022 C   0  0  0  0  0  0  0  0  0  0  0  0
    6.9393   -0.2273   -0.6330 C   0  0  0  0  0  0  0  0  0  0  0  0
    8.0594   -1.5351   -2.2323 C   0  0  0  0  0  0  0  0  0  0  0  0
   -3.8577   -1.9049    1.4407 H   0  0  0  0  0  0  0  0  0  0  0  0
   -3.2639   -4.0265   -0.4956 H   0  0  0  0  0  0  0  0  0  0  0  0
   -4.4541   -3.9686    0.8132 H   0  0  0  0  0  0  0  0  0  0  0  0
   -5.9673   -3.9812   -0.9827 H   0  0  0  0  0  0  0  0  0  0  0  0
   -4.7921   -3.2324   -2.0807 H   0  0  0  0  0  0  0  0  0  0  0  0
   -6.3719   -1.8721    0.1525 H   0  0  0  0  0  0  0  0  0  0  0  0
   -6.2633   -1.3912   -1.5626 H   0  0  0  0  0  0  0  0  0  0  0  0
   -5.0209    0.0469    1.2644 H   0  0  0  0  0  0  0  0  0  0  0  0
   -5.5805    0.6783   -0.2677 H   0  0  0  0  0  0  0  0  0  0  0  0
   -3.2757    1.3412    2.2088 H   0  0  0  0  0  0  0  0  0  0  0  0
   -3.5862    1.1009   -2.0870 H   0  0  0  0  0  0  0  0  0  0  0  0
   -1.3739    2.8659    1.9896 H   0  0  0  0  0  0  0  0  0  0  0  0
   -1.6821    2.6218   -2.3131 H   0  0  0  0  0  0  0  0  0  0  0  0
    2.2153   -1.1402   -1.0912 H   0  0  0  0  0  0  0  0  0  0  0  0
    1.2929    2.2026   -1.2317 H   0  0  0  0  0  0  0  0  0  0  0  0
    1.4297    2.3191    0.5572 H   0  0  0  0  0  0  0  0  0  0  0  0
    2.2706    3.5015   -0.4865 H   0  0  0  0  0  0  0  0  0  0  0  0
    0.4710   -0.8911    2.8701 H   0  0  0  0  0  0  0  0  0  0  0  0
    2.7336   -0.3521    3.7136 H   0  0  0  0  0  0  0  0  0  0  0  0
    6.0622   -1.0282    1.1488 H   0  0  0  0  0  0  0  0  0  0  0  0
    5.7619    0.7231    0.8865 H   0  0  0  0  0  0  0  0  0  0  0  0
    7.8889    0.0415   -0.1574 H   0  0  0  0  0  0  0  0  0  0  0  0
    6.7002    0.5093   -1.4089 H   0  0  0  0  0  0  0  0  0  0  0  0
    8.1016   -2.5421   -2.6561 H   0  0  0  0  0  0  0  0  0  0  0  0
    9.0346   -1.2991   -1.7956 H   0  0  0  0  0  0  0  0  0  0  0  0
    7.8244   -0.8288   -3.0345 H   0  0  0  0  0  0  0  0  0  0  0  0
  1  3  2  0  0  0  0
  1  4  2  0  0  0  0
  1 23  1  0  0  0  0
  1 26  1  0  0  0  0
  2  9  1  0  0  0  0
  2 16  1  0  0  0  0
  5 28  1  0  0  0  0
  5 30  1  0  0  0  0
  6 31  1  0  0  0  0
  6 32  1  0  0  0  0
  7 11  1  0  0  0  0
  7 14  1  0  0  0  0
  7 15  1  0  0  0  0
  8 16  2  0  0  0  0
  8 20  1  0  0  0  0
  9 20  2  0  0  0  0
 10 28  2  0  0  0  0
 10 29  1  0  0  0  0
 11 12  1  0  0  0  0
 11 16  1  0  0  0  0
 11 33  1  0  0  0  0
 12 13  1  0  0  0  0
 12 34  1  0  0  0  0
 12 35  1  0  0  0  0
 13 14  1  0  0  0  0
 13 36  1  0  0  0  0
 13 37  1  0  0  0  0
 14 38  1  0  0  0  0
 14 39  1  0  0  0  0
 15 17  1  0  0  0  0
 15 40  1  0  0  0  0
 15 41  1  0  0  0  0
 17 18  2  0  0  0  0
 17 19  1  0  0  0  0
 18 21  1  0  0  0  0
 18 42  1  0  0  0  0
 19 22  2  0  0  0  0
 19 43  1  0  0  0  0
 20 24  1  0  0  0  0
 21 23  2  0  0  0  0
 21 44  1  0  0  0  0
 22 23  1  0  0  0  0
 22 45  1  0  0  0  0
 24 25  2  0  0  0  0
 24 27  1  0  0  0  0
 25 28  1  0  0  0  0
 25 46  1  0  0  0  0
 26 47  1  0  0  0  0
 26 48  1  0  0  0  0
 26 49  1  0  0  0  0
 27 29  2  0  0  0  0
 27 50  1  0  0  0  0
 29 51  1  0  0  0  0
 30 31  1  0  0  0  0
 30 52  1  0  0  0  0
 30 53  1  0  0  0  0
 31 54  1  0  0  0  0
 31 55  1  0  0  0  0
 32 56  1  0  0  0  0
 32 57  1  0  0  0  0
 32 58  1  0  0  0  0
M  END
> <PUBCHEM_COMPOUND_CID>
45783369

> <PUBCHEM_CONFORMER_RMSD>
1

> <PUBCHEM_CONFORMER_DIVERSEORDER>
1
48
82
107
9
109
52
99
138
115
87
69
45
132
136
91
4
123
41
146
95
97
67
116
17
145
83
62
29
139
141
15
96
68
12
121
143
111
114
72
46
58
86
40
144
105
113
106
34
20
126
101
93
30
39
18
3
56
59
140
120
31
117
37
47
36
100
81
73
61
112
13
79
135
65
57
110
92
14
71
94
88
19
84
2
60
32
70
74
137
27
33
89
76
64
38
21
63
51
49
131
50
66
77
35
134
26
130
98
42
127
44
24
28
8
22
125
108
53
78
102
85
5
6
55
10
119
90
11
23
75
80
133
54
16
104
25
7
142
124
128
103
129
118
43
122

> <PUBCHEM_MMFF94_PARTIAL_CHARGES>
37
1 1.2
10 -0.62
11 0.45
14 0.27
15 0.41
16 0.3
17 -0.14
18 -0.15
19 -0.15
2 -0.02
20 0.46
21 -0.15
22 -0.15
23 -0.01
24 0.05
25 -0.15
26 0.11
27 -0.15
28 0.39
29 0.16
3 -0.65
30 0.28
31 0.28
32 0.28
4 -0.65
42 0.15
43 0.15
44 0.15
45 0.15
46 0.15
5 -0.36
50 0.15
51 0.15
6 -0.56
7 -0.81
8 -0.57
9 -0.41

> <PUBCHEM_EFFECTIVE_ROTOR_COUNT>
10

> <PUBCHEM_PHARMACOPHORE_FEATURES>
9
1 3 acceptor
1 4 acceptor
1 6 acceptor
1 7 cation
3 8 9 20 cation
5 2 8 9 16 20 rings
5 7 11 12 13 14 rings
6 10 24 25 27 28 29 rings
6 17 18 19 21 22 23 rings

> <PUBCHEM_HEAVY_ATOM_COUNT>
32

> <PUBCHEM_ATOM_DEF_STEREO_COUNT>
1

> <PUBCHEM_ATOM_UDEF_STEREO_COUNT>
0

> <PUBCHEM_BOND_DEF_STEREO_COUNT>
0

> <PUBCHEM_BOND_UDEF_STEREO_COUNT>
0

> <PUBCHEM_ISOTOPIC_ATOM_COUNT>
0

> <PUBCHEM_COMPONENT_COUNT>
1

> <PUBCHEM_CACTVS_TAUTO_COUNT>
1

> <PUBCHEM_CONFORMER_ID>
02BA994900000001

> <PUBCHEM_MMFF94_ENERGY>
63.6285

> <PUBCHEM_FEATURE_SELFOVERLAP>
45.69

> <PUBCHEM_SHAPE_FINGERPRINT>
10032420 55 17677031508778770433
10670039 82 18336265661453836366
1100329 8 18410007750545275545
11513181 2 17838609307793137094
12156800 1 16341212876473917897
12788726 201 18187075122718031739
133893 2 18044946920601563057
13761468 95 18044656395511458252
13782708 43 17775563135569898750
14117953 113 18412536597129262285
14713325 29 18270688562848023926
15183329 4 18337678512763888594
15297060 5 18128542569673950577
15876981 60 18334022691517782582
16067689 302 17903642126779802459
17492 54 18117257195791777093
18336668 15 18040716978250867453
21033648 29 17631996633465357827
21796203 349 17972915589946201097
21927370 108 18335998544531989947
2297311 6 18413106190886030131
23559900 14 18195518414853866099
255183 451 18050565450500035151
469060 322 18408316688296689987
6608658 132 18114745936950771876

> <PUBCHEM_SHAPE_MULTIPOLES>
613.12
14.42
5.08
1.78
27.75
6.29
0.48
-13.42
-7.51
-4.77
-1.38
2.1
-0.19
0.08

> <PUBCHEM_SHAPE_SELFOVERLAP>
1296.926

> <PUBCHEM_SHAPE_VOLUME>
347.8

> <PUBCHEM_COORDINATE_TYPE>
2
5
10

$$$$
