75536732
  -OEChem-12032416333D

 48 49  0     1  0  0  0  0  0999 V2000
    1.0817   -1.1302   -0.0815 O   0  0  0  0  0  0  0  0  0  0  0  0
    0.1526    2.3156    0.3287 O   0  0  0  0  0  0  0  0  0  0  0  0
    4.7274    1.4780   -0.0219 O   0  0  0  0  0  0  0  0  0  0  0  0
   -4.4116   -2.0176    0.7422 O   0  0  0  0  0  0  0  0  0  0  0  0
   -2.2544    0.3098    0.0854 N   0  0  0  0  0  0  0  0  0  0  0  0
    3.6682   -0.3644    0.9163 N   0  0  0  0  0  0  0  0  0  0  0  0
    5.7782   -0.5905    0.0090 N   0  0  0  0  0  0  0  0  0  0  0  0
   -0.8683    0.2011   -0.3396 C   0  0  1  0  0  0  0  0  0  0  0  0
    0.1066    0.9230    0.5720 C   0  0  1  0  0  0  0  0  0  0  0  0
    1.4157    0.2387    0.2022 C   0  0  1  0  0  0  0  0  0  0  0  0
   -0.3403   -1.2228   -0.2773 C   0  0  0  0  0  0  0  0  0  0  0  0
    2.4556    0.2950    1.3070 C   0  0  0  0  0  0  0  0  0  0  0  0
   -3.1636   -0.0985   -0.9788 C   0  0  0  0  0  0  0  0  0  0  0  0
   -4.6042   -0.0082   -0.5507 C   0  0  0  0  0  0  0  0  0  0  0  0
    4.7267    0.2836    0.2730 C   0  0  0  0  0  0  0  0  0  0  0  0
   -5.1599   -0.9726    0.2898 C   0  0  0  0  0  0  0  0  0  0  0  0
   -5.3849    1.0548   -1.0047 C   0  0  0  0  0  0  0  0  0  0  0  0
    6.9946   -0.1752   -0.6490 C   0  0  0  0  0  0  0  0  0  0  0  0
   -6.4964   -0.8741    0.6766 C   0  0  0  0  0  0  0  0  0  0  0  0
   -6.7216    1.1533   -0.6180 C   0  0  0  0  0  0  0  0  0  0  0  0
    8.0071    0.3327    0.3700 C   0  0  0  0  0  0  0  0  0  0  0  0
    7.5680   -1.3203   -1.4734 C   0  0  0  0  0  0  0  0  0  0  0  0
   -7.2774    0.1889    0.2226 C   0  0  0  0  0  0  0  0  0  0  0  0
   -0.7491    0.6077   -1.3540 H   0  0  0  0  0  0  0  0  0  0  0  0
   -0.1425    0.7565    1.6274 H   0  0  0  0  0  0  0  0  0  0  0  0
    1.8334    0.6701   -0.7170 H   0  0  0  0  0  0  0  0  0  0  0  0
   -0.7475   -1.7814    0.5734 H   0  0  0  0  0  0  0  0  0  0  0  0
   -0.5438   -1.7895   -1.1909 H   0  0  0  0  0  0  0  0  0  0  0  0
    2.0969   -0.2265    2.2011 H   0  0  0  0  0  0  0  0  0  0  0  0
    2.6787    1.3331    1.5751 H   0  0  0  0  0  0  0  0  0  0  0  0
   -2.4514    1.2797    0.3338 H   0  0  0  0  0  0  0  0  0  0  0  0
   -2.9623   -1.1300   -1.2949 H   0  0  0  0  0  0  0  0  0  0  0  0
   -3.0095    0.5256   -1.8690 H   0  0  0  0  0  0  0  0  0  0  0  0
    0.3724    2.4554   -0.6079 H   0  0  0  0  0  0  0  0  0  0  0  0
    3.7558   -1.3583    1.1047 H   0  0  0  0  0  0  0  0  0  0  0  0
   -4.9661    1.8154   -1.6582 H   0  0  0  0  0  0  0  0  0  0  0  0
    5.7145   -1.5416    0.3594 H   0  0  0  0  0  0  0  0  0  0  0  0
    6.7497    0.6497   -1.3290 H   0  0  0  0  0  0  0  0  0  0  0  0
   -6.9424   -1.6182    1.3311 H   0  0  0  0  0  0  0  0  0  0  0  0
   -7.3296    1.9812   -0.9710 H   0  0  0  0  0  0  0  0  0  0  0  0
    8.9251    0.6678   -0.1237 H   0  0  0  0  0  0  0  0  0  0  0  0
    7.6019    1.1773    0.9379 H   0  0  0  0  0  0  0  0  0  0  0  0
    8.2722   -0.4500    1.0896 H   0  0  0  0  0  0  0  0  0  0  0  0
    6.8406   -1.6662   -2.2159 H   0  0  0  0  0  0  0  0  0  0  0  0
    8.4718   -1.0059   -2.0055 H   0  0  0  0  0  0  0  0  0  0  0  0
    7.8254   -2.1771   -0.8406 H   0  0  0  0  0  0  0  0  0  0  0  0
   -8.3180    0.2658    0.5237 H   0  0  0  0  0  0  0  0  0  0  0  0
   -4.9640   -2.5810    1.3108 H   0  0  0  0  0  0  0  0  0  0  0  0
  1 10  1  0  0  0  0
  1 11  1  0  0  0  0
  2  9  1  0  0  0  0
  2 34  1  0  0  0  0
  3 15  2  0  0  0  0
  4 16  1  0  0  0  0
  4 48  1  0  0  0  0
  5  8  1  0  0  0  0
  5 13  1  0  0  0  0
  5 31  1  0  0  0  0
  6 12  1  0  0  0  0
  6 15  1  0  0  0  0
  6 35  1  0  0  0  0
  7 15  1  0  0  0  0
  7 18  1  0  0  0  0
  7 37  1  0  0  0  0
  8  9  1  0  0  0  0
  8 11  1  0  0  0  0
  8 24  1  0  0  0  0
  9 10  1  0  0  0  0
  9 25  1  0  0  0  0
 10 12  1  0  0  0  0
 10 26  1  0  0  0  0
 11 27  1  0  0  0  0
 11 28  1  0  0  0  0
 12 29  1  0  0  0  0
 12 30  1  0  0  0  0
 13 14  1  0  0  0  0
 13 32  1  0  0  0  0
 13 33  1  0  0  0  0
 14 16  1  0  0  0  0
 14 17  2  0  0  0  0
 16 19  2  0  0  0  0
 17 20  1  0  0  0  0
 17 36  1  0  0  0  0
 18 21  1  0  0  0  0
 18 22  1  0  0  0  0
 18 38  1  0  0  0  0
 19 23  1  0  0  0  0
 19 39  1  0  0  0  0
 20 23  2  0  0  0  0
 20 40  1  0  0  0  0
 21 41  1  0  0  0  0
 21 42  1  0  0  0  0
 21 43  1  0  0  0  0
 22 44  1  0  0  0  0
 22 45  1  0  0  0  0
 22 46  1  0  0  0  0
 23 47  1  0  0  0  0
M  END
> <PUBCHEM_COMPOUND_CID>
75536732

> <PUBCHEM_CONFORMER_RMSD>
1

> <PUBCHEM_CONFORMER_DIVERSEORDER>
1
156
15
101
113
70
23
74
111
48
10
148
62
135
146
147
86
87
143
82
21
89
103
145
67
144
114
150
106
105
133
107
18
61
128
129
78
83
51
137
85
125
30
95
11
141
60
136
132
139
46
57
90
45
157
119
69
17
54
142
5
120
91
6
126
32
36
22
153
29
66
110
152
3
124
63
88
24
14
49
9
75
47
149
19
138
35
56
92
64
76
115
121
53
40
108
102
80
43
130
71
28
123
112
55
118
81
134
140
96
8
25
97
98
122
109
127
155
31
154
52
20
13
38
131
27
26
39
79
58
16
84
151
59
73
33
116
65
68
7
44
104
93
42
100
34
99
4
50
37
94
12
77
117
41
2
72

> <PUBCHEM_MMFF94_PARTIAL_CHARGES>
30
1 -0.56
10 0.28
11 0.28
12 0.3
13 0.41
14 -0.14
15 0.69
16 0.08
17 -0.15
18 0.3
19 -0.15
2 -0.68
20 -0.15
23 -0.15
3 -0.57
31 0.36
34 0.4
35 0.37
36 0.15
37 0.37
39 0.15
4 -0.53
40 0.15
47 0.15
48 0.45
5 -0.9
6 -0.73
7 -0.73
8 0.27
9 0.28

> <PUBCHEM_EFFECTIVE_ROTOR_COUNT>
9

> <PUBCHEM_PHARMACOPHORE_FEATURES>
12
1 1 acceptor
1 2 acceptor
1 2 donor
1 3 acceptor
1 4 donor
1 5 cation
1 5 donor
1 6 donor
1 7 donor
3 18 21 22 hydrophobe
5 1 8 9 10 11 rings
6 14 16 17 19 20 23 rings

> <PUBCHEM_HEAVY_ATOM_COUNT>
23

> <PUBCHEM_ATOM_DEF_STEREO_COUNT>
3

> <PUBCHEM_ATOM_UDEF_STEREO_COUNT>
0

> <PUBCHEM_BOND_DEF_STEREO_COUNT>
0

> <PUBCHEM_BOND_UDEF_STEREO_COUNT>
0

> <PUBCHEM_ISOTOPIC_ATOM_COUNT>
0

> <PUBCHEM_COMPONENT_COUNT>
1

> <PUBCHEM_CACTVS_TAUTO_COUNT>
9

> <PUBCHEM_CONFORMER_ID>
0480995C00000001

> <PUBCHEM_MMFF94_ENERGY>
41.0862

> <PUBCHEM_FEATURE_SELFOVERLAP>
60.946

> <PUBCHEM_SHAPE_FINGERPRINT>
10299344 5 17312819372661832618
10319688 140 17702389442841160470
106641 1 11025807491614194468
11089746 13 15482667996611460283
11315181 36 18131351921463504153
11524674 6 17989485242998571879
11638347 137 8214148465148238468
12091667 2 18343578552007865527
13073987 5 8430331150749270423
13533116 47 16515671209885102752
14123256 10 15068339016820620938
14251764 18 14562533976929586318
14251764 46 18410572885639823361
14856354 85 17968100841555268591
14933364 13 18259702302433898332
15119646 104 15698007301809155438
15183329 4 15554448500549475982
15849732 13 18410573998400441404
18006028 8 16558749014251009552
21150785 3 16515406270168328022
21267235 1 18341898493239079944
21365058 27 16153709821236034067
21521721 280 13334740128407103676
21792961 116 18338792317008435292
220451 1 17312816074227208699
22224240 67 12468640530099707048
23035841 295 18260264152996985291
23402539 116 13110960938238193553
28498 318 17346599647312150068
328311 84 18343586243751278958
34797466 226 16008752386005343454
4073 2 17386291003151449922
4325135 7 16660644059331410735
4463277 17 18409444803947922025
5265222 85 17968667132275951323
5283156 175 18334009463931139946
5758199 1 16081088173211105576
59755656 215 18343301431616751462

> <PUBCHEM_SHAPE_MULTIPOLES>
434.91
24.18
1.46
1.03
17.44
0.09
-0.09
-2.28
-3.59
-0.47
0.02
0.35
-0.1
1.75

> <PUBCHEM_SHAPE_SELFOVERLAP>
889.932

> <PUBCHEM_SHAPE_VOLUME>
252.4

> <PUBCHEM_COORDINATE_TYPE>
2
5
10

$$$$
