40779467
  -OEChem-12032416163D

 73 78  0     1  0  0  0  0  0999 V2000
    3.0448   -3.2213   -0.9439 S   0  0  0  0  0  0  0  0  0  0  0  0
    4.0542   -3.7930   -0.0732 O   0  0  0  0  0  0  0  0  0  0  0  0
    2.6826   -3.8908   -2.1785 O   0  0  0  0  0  0  0  0  0  0  0  0
    0.3399   -2.3077   -1.9409 O   0  0  0  0  0  0  0  0  0  0  0  0
    0.4312   -3.4654    3.4486 O   0  0  0  0  0  0  0  0  0  0  0  0
    4.4361    1.6974    0.2714 N   0  0  2  0  0  0  0  0  0  0  0  0
    0.1890    3.5299    1.3902 N   0  0  0  0  0  0  0  0  0  0  0  0
    3.4484   -1.6023   -1.2856 N   0  0  0  0  0  0  0  0  0  0  0  0
   -1.1085    3.2089    1.5296 N   0  0  0  0  0  0  0  0  0  0  0  0
    2.7554    2.7888   -1.3920 C   0  0  2  0  0  0  0  0  0  0  0  0
    2.2996    3.0245    0.0746 C   0  0  2  0  0  0  0  0  0  0  0  0
    4.0458    0.7154   -0.7743 C   0  0  2  0  0  0  0  0  0  0  0  0
    2.8988    1.2730   -1.6443 C   0  0  0  0  0  0  0  0  0  0  0  0
    4.1641    3.4060   -1.5250 C   0  0  0  0  0  0  0  0  0  0  0  0
    3.2309    2.1802    0.9907 C   0  0  0  0  0  0  0  0  0  0  0  0
    5.0659    2.8562   -0.4059 C   0  0  0  0  0  0  0  0  0  0  0  0
    3.7018   -0.6552   -0.1874 C   0  0  0  0  0  0  0  0  0  0  0  0
    0.8280    2.8287    0.4100 C   0  0  0  0  0  0  0  0  0  0  0  0
   -0.1173    1.9906   -0.1289 C   0  0  0  0  0  0  0  0  0  0  0  0
   -1.2898    2.2682    0.5989 C   0  0  0  0  0  0  0  0  0  0  0  0
    0.7630    4.5381    2.2510 C   0  0  0  0  0  0  0  0  0  0  0  0
   -2.5787    1.6511    0.4234 C   0  0  0  0  0  0  0  0  0  0  0  0
    1.5593   -3.0316   -0.0047 C   0  0  0  0  0  0  0  0  0  0  0  0
   -2.9631    1.1848   -0.8341 C   0  0  0  0  0  0  0  0  0  0  0  0
   -3.4402    1.5194    1.5086 C   0  0  0  0  0  0  0  0  0  0  0  0
    0.3801   -2.5975   -0.6103 C   0  0  0  0  0  0  0  0  0  0  0  0
    1.5766   -3.3228    1.3594 C   0  0  0  0  0  0  0  0  0  0  0  0
   -4.2166    0.5800   -1.0217 C   0  0  0  0  0  0  0  0  0  0  0  0
   -4.6892    0.9211    1.3403 C   0  0  0  0  0  0  0  0  0  0  0  0
   -5.0926    0.4462    0.0817 C   0  0  0  0  0  0  0  0  0  0  0  0
    0.4148   -3.1800    2.1179 C   0  0  0  0  0  0  0  0  0  0  0  0
   -0.7818   -2.4545    0.1484 C   0  0  0  0  0  0  0  0  0  0  0  0
   -0.7645   -2.7460    1.5124 C   0  0  0  0  0  0  0  0  0  0  0  0
   -4.6199    0.1052   -2.2803 C   0  0  0  0  0  0  0  0  0  0  0  0
   -6.3461   -0.1585   -0.1060 C   0  0  0  0  0  0  0  0  0  0  0  0
   -5.8691   -0.4930   -2.4486 C   0  0  0  0  0  0  0  0  0  0  0  0
   -6.7306   -0.6246   -1.3636 C   0  0  0  0  0  0  0  0  0  0  0  0
   -0.9100   -1.8709   -2.4712 C   0  0  0  0  0  0  0  0  0  0  0  0
   -0.7925   -3.2985    4.1633 C   0  0  0  0  0  0  0  0  0  0  0  0
    2.0606    3.2401   -2.1081 H   0  0  0  0  0  0  0  0  0  0  0  0
    2.5139    4.0845    0.2779 H   0  0  0  0  0  0  0  0  0  0  0  0
    4.9185    0.5559   -1.4254 H   0  0  0  0  0  0  0  0  0  0  0  0
    1.9606    0.7510   -1.4514 H   0  0  0  0  0  0  0  0  0  0  0  0
    3.1365    1.1081   -2.7030 H   0  0  0  0  0  0  0  0  0  0  0  0
    4.1117    4.4989   -1.4578 H   0  0  0  0  0  0  0  0  0  0  0  0
    4.5872    3.1615   -2.5070 H   0  0  0  0  0  0  0  0  0  0  0  0
    3.5528    2.7969    1.8403 H   0  0  0  0  0  0  0  0  0  0  0  0
    2.6950    1.3398    1.4466 H   0  0  0  0  0  0  0  0  0  0  0  0
    6.0386    2.5646   -0.8208 H   0  0  0  0  0  0  0  0  0  0  0  0
    5.2836    3.6425    0.3280 H   0  0  0  0  0  0  0  0  0  0  0  0
    2.8091   -0.5901    0.4408 H   0  0  0  0  0  0  0  0  0  0  0  0
    4.5311   -1.0270    0.4242 H   0  0  0  0  0  0  0  0  0  0  0  0
    0.0091    1.2819   -0.9320 H   0  0  0  0  0  0  0  0  0  0  0  0
    3.0639   -1.2075   -2.1523 H   0  0  0  0  0  0  0  0  0  0  0  0
    0.0266    4.8369    3.0021 H   0  0  0  0  0  0  0  0  0  0  0  0
    1.6396    4.1189    2.7493 H   0  0  0  0  0  0  0  0  0  0  0  0
    1.0348    5.4012    1.6386 H   0  0  0  0  0  0  0  0  0  0  0  0
   -2.3022    1.2992   -1.6919 H   0  0  0  0  0  0  0  0  0  0  0  0
   -3.1653    1.8647    2.5024 H   0  0  0  0  0  0  0  0  0  0  0  0
    2.4834   -3.6595    1.8538 H   0  0  0  0  0  0  0  0  0  0  0  0
   -5.3459    0.8266    2.2028 H   0  0  0  0  0  0  0  0  0  0  0  0
   -1.7331   -2.1203   -0.2513 H   0  0  0  0  0  0  0  0  0  0  0  0
   -1.7013   -2.6122    2.0428 H   0  0  0  0  0  0  0  0  0  0  0  0
   -3.9625    0.1962   -3.1425 H   0  0  0  0  0  0  0  0  0  0  0  0
   -7.0355   -0.2720    0.7281 H   0  0  0  0  0  0  0  0  0  0  0  0
   -6.1687   -0.8564   -3.4273 H   0  0  0  0  0  0  0  0  0  0  0  0
   -7.7028   -1.0905   -1.4952 H   0  0  0  0  0  0  0  0  0  0  0  0
   -0.7603   -1.6921   -3.5411 H   0  0  0  0  0  0  0  0  0  0  0  0
   -1.2184   -0.9185   -2.0323 H   0  0  0  0  0  0  0  0  0  0  0  0
   -1.6811   -2.6438   -2.3841 H   0  0  0  0  0  0  0  0  0  0  0  0
   -0.5973   -3.5696    5.2060 H   0  0  0  0  0  0  0  0  0  0  0  0
   -1.5689   -3.9784    3.7963 H   0  0  0  0  0  0  0  0  0  0  0  0
   -1.1206   -2.2534    4.1608 H   0  0  0  0  0  0  0  0  0  0  0  0
  1  2  2  0  0  0  0
  1  3  2  0  0  0  0
  1  8  1  0  0  0  0
  1 23  1  0  0  0  0
  4 26  1  0  0  0  0
  4 38  1  0  0  0  0
  5 31  1  0  0  0  0
  5 39  1  0  0  0  0
  6 12  1  0  0  0  0
  6 15  1  0  0  0  0
  6 16  1  0  0  0  0
  7  9  1  0  0  0  0
  7 18  1  0  0  0  0
  7 21  1  0  0  0  0
  8 17  1  0  0  0  0
  8 54  1  0  0  0  0
  9 20  2  0  0  0  0
 10 11  1  0  0  0  0
 10 13  1  0  0  0  0
 10 14  1  0  0  0  0
 10 40  1  0  0  0  0
 11 15  1  0  0  0  0
 11 18  1  0  0  0  0
 11 41  1  0  0  0  0
 12 13  1  0  0  0  0
 12 17  1  0  0  0  0
 12 42  1  0  0  0  0
 13 43  1  0  0  0  0
 13 44  1  0  0  0  0
 14 16  1  0  0  0  0
 14 45  1  0  0  0  0
 14 46  1  0  0  0  0
 15 47  1  0  0  0  0
 15 48  1  0  0  0  0
 16 49  1  0  0  0  0
 16 50  1  0  0  0  0
 17 51  1  0  0  0  0
 17 52  1  0  0  0  0
 18 19  2  0  0  0  0
 19 20  1  0  0  0  0
 19 53  1  0  0  0  0
 20 22  1  0  0  0  0
 21 55  1  0  0  0  0
 21 56  1  0  0  0  0
 21 57  1  0  0  0  0
 22 24  2  0  0  0  0
 22 25  1  0  0  0  0
 23 26  2  0  0  0  0
 23 27  1  0  0  0  0
 24 28  1  0  0  0  0
 24 58  1  0  0  0  0
 25 29  2  0  0  0  0
 25 59  1  0  0  0  0
 26 32  1  0  0  0  0
 27 31  2  0  0  0  0
 27 60  1  0  0  0  0
 28 30  1  0  0  0  0
 28 34  2  0  0  0  0
 29 30  1  0  0  0  0
 29 61  1  0  0  0  0
 30 35  2  0  0  0  0
 31 33  1  0  0  0  0
 32 33  2  0  0  0  0
 32 62  1  0  0  0  0
 33 63  1  0  0  0  0
 34 36  1  0  0  0  0
 34 64  1  0  0  0  0
 35 37  1  0  0  0  0
 35 65  1  0  0  0  0
 36 37  2  0  0  0  0
 36 66  1  0  0  0  0
 37 67  1  0  0  0  0
 38 68  1  0  0  0  0
 38 69  1  0  0  0  0
 38 70  1  0  0  0  0
 39 71  1  0  0  0  0
 39 72  1  0  0  0  0
 39 73  1  0  0  0  0
M  END
> <PUBCHEM_COMPOUND_CID>
40779467

> <PUBCHEM_CONFORMER_RMSD>
1.2

> <PUBCHEM_CONFORMER_DIVERSEORDER>
1
123
174
145
82
161
146
102
104
101
12
43
164
136
36
83
133
168
115
34
87
13
57
177
42
38
122
159
107
31
79
156
70
77
61
152
78
162
106
65
121
125
149
75
126
19
16
85
39
92
150
171
53
72
140
111
124
153
90
176
4
175
169
154
100
109
25
69
170
37
5
108
116
95
29
52
148
143
151
46
28
96
44
41
114
93
40
172
99
22
94
110
113
50
55
15
67
32
144
81
97
62
64
163
139
56
131
49
18
118
141
130
132
165
47
89
14
134
98
105
33
119
86
35
167
135
3
48
21
137
10
59
84
58
155
6
30
68
20
11
71
17
117
138
24
142
7
127
158
160
54
23
129
45
26
9
103
173
2
76
128
60
88
166
51
74
66
112
63
73
120
91
147
8
80
27
157

> <PUBCHEM_MMFF94_PARTIAL_CHARGES>
46
1 1.45
11 0.18
12 0.27
15 0.27
16 0.27
17 0.36
18 -0.33
19 -0.15
2 -0.65
20 0.23
21 0.26
22 0.05
23 -0.01
24 -0.15
25 -0.15
26 0.08
27 -0.15
29 -0.15
3 -0.65
31 0.08
32 -0.15
33 -0.15
34 -0.15
35 -0.15
36 -0.15
37 -0.15
38 0.28
39 0.28
4 -0.36
5 -0.36
53 0.15
54 0.42
58 0.15
59 0.15
6 -0.81
60 0.15
61 0.15
62 0.15
63 0.15
64 0.15
65 0.15
66 0.15
67 0.15
7 0.31
8 -0.91
9 -0.71

> <PUBCHEM_EFFECTIVE_ROTOR_COUNT>
9.2

> <PUBCHEM_PHARMACOPHORE_FEATURES>
12
1 2 acceptor
1 3 acceptor
1 4 acceptor
1 5 acceptor
1 6 cation
1 8 donor
1 9 acceptor
5 7 9 18 19 20 rings
6 22 24 25 28 29 30 rings
6 23 26 27 31 32 33 rings
6 28 30 34 35 36 37 rings
8 6 10 11 12 13 14 15 16 rings

> <PUBCHEM_HEAVY_ATOM_COUNT>
39

> <PUBCHEM_ATOM_DEF_STEREO_COUNT>
3

> <PUBCHEM_ATOM_UDEF_STEREO_COUNT>
0

> <PUBCHEM_BOND_DEF_STEREO_COUNT>
0

> <PUBCHEM_BOND_UDEF_STEREO_COUNT>
0

> <PUBCHEM_ISOTOPIC_ATOM_COUNT>
0

> <PUBCHEM_COMPONENT_COUNT>
1

> <PUBCHEM_CACTVS_TAUTO_COUNT>
1

> <PUBCHEM_CONFORMER_ID>
026E3ECB00000001

> <PUBCHEM_MMFF94_ENERGY>
110.0886

> <PUBCHEM_FEATURE_SELFOVERLAP>
60.947

> <PUBCHEM_SHAPE_FINGERPRINT>
10032420 55 17390241329587221958
10653451 467 17686351171632423075
10675989 125 18410854390713882708
11135609 187 18341046427937324365
11513181 2 17843976848850812230
11991303 11 17678742468951085511
12156800 1 16840748573766587570
13383668 90 15936695947181607128
1361 2 18202001061926940093
14705955 166 17100873323936481906
15001296 14 18270963419348716501
16067689 391 17625589728250416230
16993438 75 17760648466185765166
17138139 8 17986659579555496629
19315092 285 17679287586559516347
19319366 153 18337662105038999262
20587220 46 17203316841326867551
20764821 26 18340778151415342776
21133410 230 17536340341809637395
25223398 141 17540548237402723044
3298306 158 18337946900420957765
3383291 50 17985828369870410582
463206 1 18342741814536735525
5265222 85 17975140051829135101
66674814 147 18188500064550679392
6669772 16 18261109711666679459
86090 222 18186812400117187571

> <PUBCHEM_SHAPE_MULTIPOLES>
763.05
11.47
6.59
2.92
14.44
2.38
1.77
-4.48
-6.71
-7.74
3.25
1.4
2.43
-0.14

> <PUBCHEM_SHAPE_SELFOVERLAP>
1659.548

> <PUBCHEM_SHAPE_VOLUME>
419.4

> <PUBCHEM_COORDINATE_TYPE>
2
5
10

$$$$
