51136835
  -OEChem-12032416343D

 64 68  0     1  0  0  0  0  0999 V2000
    0.7990   -3.8401   -1.8515 F   0  0  0  0  0  0  0  0  0  0  0  0
    2.4607   -3.2775   -0.5486 F   0  0  0  0  0  0  0  0  0  0  0  0
    1.9319   -1.9797   -2.2255 F   0  0  0  0  0  0  0  0  0  0  0  0
   -4.0616    1.9019   -0.7065 O   0  0  0  0  0  0  0  0  0  0  0  0
    0.5496   -2.0851   -0.4062 O   0  0  0  0  0  0  0  0  0  0  0  0
    6.0965   -0.0530    3.3771 O   0  0  0  0  0  0  0  0  0  0  0  0
   -3.9151   -0.6596    1.9246 N   0  0  1  0  0  0  0  0  0  0  0  0
    2.8309    1.4422   -0.1841 N   0  0  0  0  0  0  0  0  0  0  0  0
    4.9903    0.2923    1.3629 N   0  0  0  0  0  0  0  0  0  0  0  0
   -2.2025    1.1777    0.3112 N   0  0  0  0  0  0  0  0  0  0  0  0
   -2.9882    2.3988   -1.4566 N   0  0  0  0  0  0  0  0  0  0  0  0
    2.0476    2.7067   -2.0183 N   0  0  0  0  0  0  0  0  0  0  0  0
   -4.4775    0.5460    1.2840 C   0  0  1  0  0  0  0  0  0  0  0  0
   -4.8560    1.4710    2.4554 C   0  0  0  0  0  0  0  0  0  0  0  0
   -4.5272    0.6769    3.7116 C   0  0  0  0  0  0  0  0  0  0  0  0
   -4.5487   -0.7628    3.2393 C   0  0  0  0  0  0  0  0  0  0  0  0
   -4.0964   -1.8689    1.1320 C   0  0  0  0  0  0  0  0  0  0  0  0
   -3.5114    1.1950    0.3152 C   0  0  0  0  0  0  0  0  0  0  0  0
   -3.0816   -1.9709    0.0245 C   0  0  0  0  0  0  0  0  0  0  0  0
    4.1039    1.0998   -0.8232 C   0  0  0  0  0  0  0  0  0  0  0  0
    2.7124    1.2587    1.2651 C   0  0  0  0  0  0  0  0  0  0  0  0
    4.8123   -0.0177   -0.0573 C   0  0  0  0  0  0  0  0  0  0  0  0
    4.0879    1.2925    1.9275 C   0  0  0  0  0  0  0  0  0  0  0  0
   -1.9270    1.9292   -0.7940 C   0  0  0  0  0  0  0  0  0  0  0  0
    1.7717    1.9626   -0.9239 C   0  0  0  0  0  0  0  0  0  0  0  0
   -1.7197   -1.9817    0.3255 C   0  0  0  0  0  0  0  0  0  0  0  0
   -3.5034   -2.0536   -1.3027 C   0  0  0  0  0  0  0  0  0  0  0  0
   -0.5783    2.1939   -1.2087 C   0  0  0  0  0  0  0  0  0  0  0  0
    0.4894    1.6799   -0.4813 C   0  0  0  0  0  0  0  0  0  0  0  0
    5.9451   -0.3125    2.1812 C   0  0  0  0  0  0  0  0  0  0  0  0
   -0.7793   -2.0755   -0.7005 C   0  0  0  0  0  0  0  0  0  0  0  0
   -2.5630   -2.1472   -2.3286 C   0  0  0  0  0  0  0  0  0  0  0  0
   -0.3346    2.9641   -2.3405 C   0  0  0  0  0  0  0  0  0  0  0  0
   -1.2009   -2.1584   -2.0276 C   0  0  0  0  0  0  0  0  0  0  0  0
    0.9844    3.1894   -2.7000 C   0  0  0  0  0  0  0  0  0  0  0  0
    6.8320   -1.3408    1.5227 C   0  0  0  0  0  0  0  0  0  0  0  0
    1.4270   -2.7938   -1.2742 C   0  0  0  0  0  0  0  0  0  0  0  0
   -5.4018    0.3029    0.7411 H   0  0  0  0  0  0  0  0  0  0  0  0
   -4.3261    2.4297    2.4514 H   0  0  0  0  0  0  0  0  0  0  0  0
   -5.9321    1.6814    2.4260 H   0  0  0  0  0  0  0  0  0  0  0  0
   -5.2414    0.8647    4.5187 H   0  0  0  0  0  0  0  0  0  0  0  0
   -3.5266    0.9466    4.0717 H   0  0  0  0  0  0  0  0  0  0  0  0
   -3.9900   -1.4164    3.9163 H   0  0  0  0  0  0  0  0  0  0  0  0
   -5.5824   -1.1238    3.1659 H   0  0  0  0  0  0  0  0  0  0  0  0
   -3.9449   -2.7552    1.7643 H   0  0  0  0  0  0  0  0  0  0  0  0
   -5.1217   -1.9539    0.7485 H   0  0  0  0  0  0  0  0  0  0  0  0
    3.9416    0.7629   -1.8543 H   0  0  0  0  0  0  0  0  0  0  0  0
    4.7375    1.9942   -0.8597 H   0  0  0  0  0  0  0  0  0  0  0  0
    2.2301    0.2953    1.4723 H   0  0  0  0  0  0  0  0  0  0  0  0
    2.1040    2.0537    1.7137 H   0  0  0  0  0  0  0  0  0  0  0  0
    5.7815   -0.2198   -0.5223 H   0  0  0  0  0  0  0  0  0  0  0  0
    4.2220   -0.9410   -0.1054 H   0  0  0  0  0  0  0  0  0  0  0  0
    3.9882    1.1428    3.0079 H   0  0  0  0  0  0  0  0  0  0  0  0
    4.5626    2.2697    1.7755 H   0  0  0  0  0  0  0  0  0  0  0  0
   -1.3813   -1.9220    1.3571 H   0  0  0  0  0  0  0  0  0  0  0  0
   -4.5609   -2.0417   -1.5522 H   0  0  0  0  0  0  0  0  0  0  0  0
    0.3098    1.0610    0.3917 H   0  0  0  0  0  0  0  0  0  0  0  0
   -2.8915   -2.2011   -3.3624 H   0  0  0  0  0  0  0  0  0  0  0  0
   -1.1267    3.3906   -2.9470 H   0  0  0  0  0  0  0  0  0  0  0  0
   -0.5023   -2.1924   -2.8581 H   0  0  0  0  0  0  0  0  0  0  0  0
    1.2285    3.7834   -3.5745 H   0  0  0  0  0  0  0  0  0  0  0  0
    7.4208   -1.8554    2.2882 H   0  0  0  0  0  0  0  0  0  0  0  0
    6.2327   -2.0892    0.9977 H   0  0  0  0  0  0  0  0  0  0  0  0
    7.5197   -0.8501    0.8291 H   0  0  0  0  0  0  0  0  0  0  0  0
  1 37  1  0  0  0  0
  2 37  1  0  0  0  0
  3 37  1  0  0  0  0
  4 11  1  0  0  0  0
  4 18  1  0  0  0  0
  5 31  1  0  0  0  0
  5 37  1  0  0  0  0
  6 30  2  0  0  0  0
  7 13  1  0  0  0  0
  7 16  1  0  0  0  0
  7 17  1  0  0  0  0
  8 20  1  0  0  0  0
  8 21  1  0  0  0  0
  8 25  1  0  0  0  0
  9 22  1  0  0  0  0
  9 23  1  0  0  0  0
  9 30  1  0  0  0  0
 10 18  2  0  0  0  0
 10 24  1  0  0  0  0
 11 24  2  0  0  0  0
 12 25  2  0  0  0  0
 12 35  1  0  0  0  0
 13 14  1  0  0  0  0
 13 18  1  0  0  0  0
 13 38  1  0  0  0  0
 14 15  1  0  0  0  0
 14 39  1  0  0  0  0
 14 40  1  0  0  0  0
 15 16  1  0  0  0  0
 15 41  1  0  0  0  0
 15 42  1  0  0  0  0
 16 43  1  0  0  0  0
 16 44  1  0  0  0  0
 17 19  1  0  0  0  0
 17 45  1  0  0  0  0
 17 46  1  0  0  0  0
 19 26  2  0  0  0  0
 19 27  1  0  0  0  0
 20 22  1  0  0  0  0
 20 47  1  0  0  0  0
 20 48  1  0  0  0  0
 21 23  1  0  0  0  0
 21 49  1  0  0  0  0
 21 50  1  0  0  0  0
 22 51  1  0  0  0  0
 22 52  1  0  0  0  0
 23 53  1  0  0  0  0
 23 54  1  0  0  0  0
 24 28  1  0  0  0  0
 25 29  1  0  0  0  0
 26 31  1  0  0  0  0
 26 55  1  0  0  0  0
 27 32  2  0  0  0  0
 27 56  1  0  0  0  0
 28 29  2  0  0  0  0
 28 33  1  0  0  0  0
 29 57  1  0  0  0  0
 30 36  1  0  0  0  0
 31 34  2  0  0  0  0
 32 34  1  0  0  0  0
 32 58  1  0  0  0  0
 33 35  2  0  0  0  0
 33 59  1  0  0  0  0
 34 60  1  0  0  0  0
 35 61  1  0  0  0  0
 36 62  1  0  0  0  0
 36 63  1  0  0  0  0
 36 64  1  0  0  0  0
M  END
> <PUBCHEM_COMPOUND_CID>
51136835

> <PUBCHEM_CONFORMER_RMSD>
1

> <PUBCHEM_CONFORMER_DIVERSEORDER>
1
222
182
253
13
145
170
120
143
158
268
166
160
177
5
162
242
180
250
45
66
255
202
130
184
135
214
196
209
236
31
264
53
46
270
91
121
25
259
198
207
210
67
241
248
181
119
112
269
206
247
104
131
144
102
273
230
75
97
133
190
220
155
18
48
169
20
62
74
232
147
194
108
149
228
24
125
83
117
154
89
35
179
69
36
114
254
183
101
256
215
55
191
12
92
193
86
212
110
200
103
134
238
159
132
267
44
43
201
10
156
98
146
105
152
17
265
56
244
226
271
137
126
208
157
109
124
52
90
266
213
128
274
245
185
223
174
151
258
192
107
140
139
99
197
219
57
54
38
172
15
187
141
153
58
33
272
262
237
233
64
93
178
8
234
82
260
49
204
203
79
231
251
188
106
165
76
224
81
6
127
72
122
7
29
211
175
60
73
167
176
16
65
19
225
9
30
42
243
221
138
111
14
257
51
229
164
39
85
118
171
150
96
70
41
123
246
168
163
26
235
116
205
3
239
61
50
22
63
11
195
87
216
217
4
252
189
249
240
136
218
80
186
261
142
94
2
37
95
68
173
113
199
115
161
148
59
34
71
129
263
88
23
47
28
77
84
100
21
227
32
78
40
27

> <PUBCHEM_MMFF94_PARTIAL_CHARGES>
42
1 -0.34
10 -0.57
11 -0.41
12 -0.62
13 0.45
16 0.27
17 0.41
18 0.3
19 -0.14
2 -0.34
20 0.37
21 0.37
22 0.3
23 0.3
24 0.46
25 0.41
26 -0.15
27 -0.15
28 0.05
29 -0.15
3 -0.34
30 0.57
31 0.08
32 -0.15
33 -0.15
34 -0.15
35 0.16
36 0.06
37 1.3
4 -0.02
5 -0.36
55 0.15
56 0.15
57 0.15
58 0.15
59 0.15
6 -0.57
60 0.15
61 0.15
7 -0.81
8 -0.84
9 -0.66

> <PUBCHEM_EFFECTIVE_ROTOR_COUNT>
10.2

> <PUBCHEM_PHARMACOPHORE_FEATURES>
10
1 5 acceptor
1 6 acceptor
1 7 cation
3 10 11 24 cation
3 8 12 25 cation
5 4 10 11 18 24 rings
5 7 13 14 15 16 rings
6 12 25 28 29 33 35 rings
6 19 26 27 31 32 34 rings
6 8 9 20 21 22 23 rings

> <PUBCHEM_HEAVY_ATOM_COUNT>
37

> <PUBCHEM_ATOM_DEF_STEREO_COUNT>
1

> <PUBCHEM_ATOM_UDEF_STEREO_COUNT>
0

> <PUBCHEM_BOND_DEF_STEREO_COUNT>
0

> <PUBCHEM_BOND_UDEF_STEREO_COUNT>
0

> <PUBCHEM_ISOTOPIC_ATOM_COUNT>
0

> <PUBCHEM_COMPONENT_COUNT>
1

> <PUBCHEM_CACTVS_TAUTO_COUNT>
1

> <PUBCHEM_CONFORMER_ID>
030C494300000001

> <PUBCHEM_MMFF94_ENERGY>
97.2905

> <PUBCHEM_FEATURE_SELFOVERLAP>
50.749

> <PUBCHEM_SHAPE_FINGERPRINT>
10305334 12 17459745913761210113
11112241 14 17489579048086873657
11170278 141 18334301946524824386
11387372 6 16881864536594577802
12422481 6 18410577253964572002
12633046 712 16588021337796975773
12633257 1 17897179102783881115
12655387 17 17313685754741772585
12788726 201 17122010361728663917
14068700 675 17414128503426752557
14395042 24 18126565867819031987
14950920 106 17386010623375809267
15264996 74 17983823835856333319
15324884 4 17977398135622176567
15444296 8 17313097527829361821
16112460 7 18200311173038414960
20554085 129 17702410398233991097
20764821 26 18336554888208083878
21796203 349 18044402567350813264
21987440 362 17627530245339798625
238918 7 18342166727343411270
392239 28 18060695109075667208
4112364 45 16842781330991969849
484985 159 17677314096421075163
508706 21 18409166601910468622
513202 73 18115013101429060898
581034 39 18129673017998723175
7064713 232 18202010953094171841

> <PUBCHEM_SHAPE_MULTIPOLES>
692.13
12.46
4.15
3.52
13.34
0.09
2.11
-2.73
13.95
-0.14
-3.83
-1.19
-0.4
-1.27

> <PUBCHEM_SHAPE_SELFOVERLAP>
1497.993

> <PUBCHEM_SHAPE_VOLUME>
381

> <PUBCHEM_COORDINATE_TYPE>
2
5
10

$$$$
