75537093
  -OEChem-12032416333D

 46 49  0     1  0  0  0  0  0999 V2000
   -5.4012    1.2792    0.3807 F   0  0  0  0  0  0  0  0  0  0  0  0
    6.2020   -2.6520    1.6120 F   0  0  0  0  0  0  0  0  0  0  0  0
    2.2805    3.0307    0.1068 O   0  0  0  0  0  0  0  0  0  0  0  0
    0.2125    1.9326   -0.0842 N   0  0  0  0  0  0  0  0  0  0  0  0
   -2.2374    0.7945    0.6990 N   0  0  2  0  0  0  0  0  0  0  0  0
    1.9694    1.0948   -1.2046 N   0  0  0  0  0  0  0  0  0  0  0  0
   -6.0581   -2.0207   -0.9687 N   0  0  0  0  0  0  0  0  0  0  0  0
   -0.3403    0.8479   -0.8681 C   0  0  2  0  0  0  0  0  0  0  0  0
   -1.2339   -0.0354    0.0020 C   0  0  0  0  0  0  0  0  0  0  0  0
    0.8918    0.1492   -1.4397 C   0  0  0  0  0  0  0  0  0  0  0  0
   -0.6663    2.7198    0.7554 C   0  0  0  0  0  0  0  0  0  0  0  0
   -1.5827    1.7975    1.5633 C   0  0  0  0  0  0  0  0  0  0  0  0
    1.5751    2.1360   -0.3402 C   0  0  0  0  0  0  0  0  0  0  0  0
   -3.1361   -0.0483    1.4875 C   0  0  0  0  0  0  0  0  0  0  0  0
    3.3099    0.8673   -1.6974 C   0  0  0  0  0  0  0  0  0  0  0  0
   -4.1585   -0.7357    0.6294 C   0  0  0  0  0  0  0  0  0  0  0  0
    4.0812   -0.0713   -0.8152 C   0  0  0  0  0  0  0  0  0  0  0  0
   -5.2403   -0.0243    0.1224 C   0  0  0  0  0  0  0  0  0  0  0  0
   -4.0254   -2.0889    0.3383 C   0  0  0  0  0  0  0  0  0  0  0  0
    4.8371    0.4306    0.2443 C   0  0  0  0  0  0  0  0  0  0  0  0
    4.0417   -1.4450   -1.0545 C   0  0  0  0  0  0  0  0  0  0  0  0
    5.5539   -0.4410    1.0641 C   0  0  0  0  0  0  0  0  0  0  0  0
    4.7585   -2.3166   -0.2347 C   0  0  0  0  0  0  0  0  0  0  0  0
   -6.1540   -0.7070   -0.6644 C   0  0  0  0  0  0  0  0  0  0  0  0
   -4.9936   -2.6792   -0.4582 C   0  0  0  0  0  0  0  0  0  0  0  0
    5.5146   -1.8146    0.8245 C   0  0  0  0  0  0  0  0  0  0  0  0
   -0.9240    1.3034   -1.6789 H   0  0  0  0  0  0  0  0  0  0  0  0
   -1.7118   -0.7714   -0.6535 H   0  0  0  0  0  0  0  0  0  0  0  0
   -0.6273   -0.5880    0.7324 H   0  0  0  0  0  0  0  0  0  0  0  0
    0.7916   -0.0476   -2.5113 H   0  0  0  0  0  0  0  0  0  0  0  0
    1.1218   -0.7836   -0.9157 H   0  0  0  0  0  0  0  0  0  0  0  0
   -1.2555    3.3655    0.0942 H   0  0  0  0  0  0  0  0  0  0  0  0
   -0.0696    3.3608    1.4120 H   0  0  0  0  0  0  0  0  0  0  0  0
   -0.9969    1.2957    2.3451 H   0  0  0  0  0  0  0  0  0  0  0  0
   -2.3364    2.4177    2.0631 H   0  0  0  0  0  0  0  0  0  0  0  0
   -3.6956    0.5630    2.2098 H   0  0  0  0  0  0  0  0  0  0  0  0
   -2.5807   -0.7731    2.0984 H   0  0  0  0  0  0  0  0  0  0  0  0
    3.8299    1.8317   -1.7466 H   0  0  0  0  0  0  0  0  0  0  0  0
    3.2495    0.4881   -2.7242 H   0  0  0  0  0  0  0  0  0  0  0  0
   -3.1946   -2.6750    0.7158 H   0  0  0  0  0  0  0  0  0  0  0  0
    4.8761    1.4984    0.4425 H   0  0  0  0  0  0  0  0  0  0  0  0
    3.4570   -1.8486   -1.8768 H   0  0  0  0  0  0  0  0  0  0  0  0
    6.1423   -0.0507    1.8892 H   0  0  0  0  0  0  0  0  0  0  0  0
    4.7280   -3.3861   -0.4207 H   0  0  0  0  0  0  0  0  0  0  0  0
   -7.0150   -0.1973   -1.0840 H   0  0  0  0  0  0  0  0  0  0  0  0
   -4.9355   -3.7318   -0.7147 H   0  0  0  0  0  0  0  0  0  0  0  0
  1 18  1  0  0  0  0
  2 26  1  0  0  0  0
  3 13  2  0  0  0  0
  4  8  1  0  0  0  0
  4 11  1  0  0  0  0
  4 13  1  0  0  0  0
  5  9  1  0  0  0  0
  5 12  1  0  0  0  0
  5 14  1  0  0  0  0
  6 10  1  0  0  0  0
  6 13  1  0  0  0  0
  6 15  1  0  0  0  0
  7 24  2  0  0  0  0
  7 25  1  0  0  0  0
  8  9  1  0  0  0  0
  8 10  1  0  0  0  0
  8 27  1  0  0  0  0
  9 28  1  0  0  0  0
  9 29  1  0  0  0  0
 10 30  1  0  0  0  0
 10 31  1  0  0  0  0
 11 12  1  0  0  0  0
 11 32  1  0  0  0  0
 11 33  1  0  0  0  0
 12 34  1  0  0  0  0
 12 35  1  0  0  0  0
 14 16  1  0  0  0  0
 14 36  1  0  0  0  0
 14 37  1  0  0  0  0
 15 17  1  0  0  0  0
 15 38  1  0  0  0  0
 15 39  1  0  0  0  0
 16 18  2  0  0  0  0
 16 19  1  0  0  0  0
 17 20  2  0  0  0  0
 17 21  1  0  0  0  0
 18 24  1  0  0  0  0
 19 25  2  0  0  0  0
 19 40  1  0  0  0  0
 20 22  1  0  0  0  0
 20 41  1  0  0  0  0
 21 23  2  0  0  0  0
 21 42  1  0  0  0  0
 22 26  2  0  0  0  0
 22 43  1  0  0  0  0
 23 26  1  0  0  0  0
 23 44  1  0  0  0  0
 24 45  1  0  0  0  0
 25 46  1  0  0  0  0
M  END
> <PUBCHEM_COMPOUND_CID>
75537093

> <PUBCHEM_CONFORMER_RMSD>
0.8

> <PUBCHEM_CONFORMER_DIVERSEORDER>
1
59
112
108
41
102
78
93
72
21
23
90
109
106
95
19
7
77
56
86
25
76
64
63
103
68
89
65
58
97
61
34
48
17
67
52
87
24
105
10
37
82
74
100
28
8
60
75
101
99
35
42
39
49
44
71
107
94
85
6
14
26
47
66
29
91
104
111
96
53
50
84
43
36
38
45
55
79
62
16
51
31
11
46
80
20
81
22
92
5
32
30
54
27
9
18
15
83
110
13
33
12
57
98
73
4
70
40
2
69
3
88

> <PUBCHEM_MMFF94_PARTIAL_CHARGES>
33
1 -0.19
10 0.3
11 0.3
12 0.27
13 0.69
14 0.41
15 0.44
16 -0.14
17 -0.14
18 0.19
19 -0.15
2 -0.19
20 -0.15
21 -0.15
22 -0.15
23 -0.15
24 0.16
25 0.16
26 0.19
3 -0.57
4 -0.66
40 0.15
41 0.15
42 0.15
43 0.15
44 0.15
45 0.15
46 0.15
5 -0.81
6 -0.66
7 -0.62
8 0.3
9 0.27

> <PUBCHEM_EFFECTIVE_ROTOR_COUNT>
5.2

> <PUBCHEM_PHARMACOPHORE_FEATURES>
7
1 3 acceptor
1 5 cation
1 7 acceptor
5 4 6 8 10 13 rings
6 17 20 21 22 23 26 rings
6 4 5 8 9 11 12 rings
6 7 16 18 19 24 25 rings

> <PUBCHEM_HEAVY_ATOM_COUNT>
26

> <PUBCHEM_ATOM_DEF_STEREO_COUNT>
1

> <PUBCHEM_ATOM_UDEF_STEREO_COUNT>
0

> <PUBCHEM_BOND_DEF_STEREO_COUNT>
0

> <PUBCHEM_BOND_UDEF_STEREO_COUNT>
0

> <PUBCHEM_ISOTOPIC_ATOM_COUNT>
0

> <PUBCHEM_COMPONENT_COUNT>
1

> <PUBCHEM_CACTVS_TAUTO_COUNT>
1

> <PUBCHEM_CONFORMER_ID>
04809AC500000001

> <PUBCHEM_MMFF94_ENERGY>
60.361

> <PUBCHEM_FEATURE_SELFOVERLAP>
35.618

> <PUBCHEM_SHAPE_FINGERPRINT>
10447042 23 18333454261629053316
11796584 16 17313105293056152576
11963148 33 17407107133910451279
1200032 147 12319445633333274738
12390115 104 11674876689455540597
12596602 18 17704356554783309298
12839892 36 17846224340696449631
12892183 10 17346038845153573856
12895836 83 8574415531357053818
13533116 47 18408042931450218472
13782708 43 17896047701514737763
13828863 39 10735875080047306203
13885169 86 10879697819495013018
13911852 28 18335979766781815202
14251740 57 18131080290520616446
14251751 18 18408881849836391213
14347332 77 18269838769804857975
1454969 45 18336836381377662380
14848178 5 18334016098864444706
14950920 106 14547914801291033174
15163728 17 9943516436786117280
15183329 4 15936406736694281165
15188451 53 18411131403646184546
15475509 8 15574711357498740439
17349148 13 18337968838707652559
17857418 61 18410015450551140703
18222031 100 18272384065601950332
19438510 23 11671478103467801806
1979834 28 17560812021584537526
20028762 73 18412262809865482126
20567600 234 15769770290543366514
21033648 29 15984829173015715408
21315764 119 13334731302597295178
21458453 9 15768913822588915762
21728266 224 18342461430592267041
21987440 362 17103682138655235469
22061861 79 16950284026638593071
22079108 93 14117515432889955772
23559900 14 18265055906360016921
23572383 38 18202289082729670623
2838139 119 11455890235453270514
3004659 81 18336276711950755534
312425 54 17416982633285272378
339767 52 18343863320797672439
376196 1 14494163234580186636
38570 142 10735877305198951056
3886686 26 17264417535568448802
4339292 15 16806158841250795602
439807 62 18263649644701499467
463206 1 18261117391142395891
5085150 59 17988923358545017647
5104073 3 17988093304427258465
531348 171 18187079538914881703
559249 180 18410575068380164443
6438161 24 18272082851620406119
7808743 9 8574426504729690585
8988823 20 18411699932815039876
960060 61 17313112977042821286
96874 4 18335412457204947842

> <PUBCHEM_SHAPE_MULTIPOLES>
494.73
16.18
3.08
1.42
3.61
0.07
-0.05
-13.39
-1.68
-0.74
-0.47
-0.91
-0.04
-2.11

> <PUBCHEM_SHAPE_SELFOVERLAP>
1069.508

> <PUBCHEM_SHAPE_VOLUME>
272.2

> <PUBCHEM_COORDINATE_TYPE>
2
5
10

$$$$
