71694075
  -OEChem-12032416403D

 43 45  0     0  0  0  0  0  0999 V2000
   -6.5844   -1.1914    0.5139 F   0  0  0  0  0  0  0  0  0  0  0  0
    4.2652    2.2462    0.9883 O   0  0  0  0  0  0  0  0  0  0  0  0
   -1.2343    2.0321   -0.0601 O   0  0  0  0  0  0  0  0  0  0  0  0
    2.8459   -0.5364    0.3980 N   0  0  0  0  0  0  0  0  0  0  0  0
    0.0872    2.3672   -0.3293 N   0  0  0  0  0  0  0  0  0  0  0  0
    2.9688    0.8681   -0.0048 C   0  0  0  0  0  0  0  0  0  0  0  0
    2.9292    1.7434    1.2550 C   0  0  0  0  0  0  0  0  0  0  0  0
    4.4586    1.2342   -0.0349 C   0  0  0  0  0  0  0  0  0  0  0  0
    2.1014    1.2273   -1.1833 C   0  0  0  0  0  0  0  0  0  0  0  0
    3.1494   -1.3940   -0.7429 C   0  0  0  0  0  0  0  0  0  0  0  0
    3.4563   -2.8421   -0.3242 C   0  0  0  0  0  0  0  0  0  0  0  0
    0.6438    1.2408   -0.7835 C   0  0  0  0  0  0  0  0  0  0  0  0
    4.6666   -2.8634    0.6132 C   0  0  0  0  0  0  0  0  0  0  0  0
    2.2658   -3.5213    0.3576 C   0  0  0  0  0  0  0  0  0  0  0  0
   -0.2689    0.1726   -0.8227 C   0  0  0  0  0  0  0  0  0  0  0  0
   -1.4342    0.7228   -0.3579 C   0  0  0  0  0  0  0  0  0  0  0  0
   -2.7614    0.2289   -0.1323 C   0  0  0  0  0  0  0  0  0  0  0  0
   -3.0668   -1.1034   -0.4106 C   0  0  0  0  0  0  0  0  0  0  0  0
   -3.7475    1.0812    0.3648 C   0  0  0  0  0  0  0  0  0  0  0  0
   -4.3580   -1.5833   -0.1923 C   0  0  0  0  0  0  0  0  0  0  0  0
   -5.0388    0.6014    0.5831 C   0  0  0  0  0  0  0  0  0  0  0  0
   -5.3441   -0.7309    0.3046 C   0  0  0  0  0  0  0  0  0  0  0  0
    2.2121    2.5677    1.2679 H   0  0  0  0  0  0  0  0  0  0  0  0
    2.8948    1.2336    2.2246 H   0  0  0  0  0  0  0  0  0  0  0  0
    5.1835    0.4849    0.3020 H   0  0  0  0  0  0  0  0  0  0  0  0
    4.8158    1.6814   -0.9679 H   0  0  0  0  0  0  0  0  0  0  0  0
    2.2517    0.5959   -2.0646 H   0  0  0  0  0  0  0  0  0  0  0  0
    2.3579    2.2398   -1.5272 H   0  0  0  0  0  0  0  0  0  0  0  0
    1.9399   -0.7881    0.7902 H   0  0  0  0  0  0  0  0  0  0  0  0
    4.0142   -1.0268   -1.3102 H   0  0  0  0  0  0  0  0  0  0  0  0
    2.3022   -1.4325   -1.4366 H   0  0  0  0  0  0  0  0  0  0  0  0
    3.7057   -3.4123   -1.2279 H   0  0  0  0  0  0  0  0  0  0  0  0
    5.5284   -2.3707    0.1503 H   0  0  0  0  0  0  0  0  0  0  0  0
    4.9575   -3.8961    0.8350 H   0  0  0  0  0  0  0  0  0  0  0  0
    4.4614   -2.3679    1.5680 H   0  0  0  0  0  0  0  0  0  0  0  0
    1.3791   -3.4831   -0.2840 H   0  0  0  0  0  0  0  0  0  0  0  0
    2.4890   -4.5753    0.5554 H   0  0  0  0  0  0  0  0  0  0  0  0
    2.0150   -3.0515    1.3142 H   0  0  0  0  0  0  0  0  0  0  0  0
   -0.0984   -0.8441   -1.1448 H   0  0  0  0  0  0  0  0  0  0  0  0
   -2.3201   -1.7915   -0.7984 H   0  0  0  0  0  0  0  0  0  0  0  0
   -3.5489    2.1251    0.5939 H   0  0  0  0  0  0  0  0  0  0  0  0
   -4.5965   -2.6204   -0.4089 H   0  0  0  0  0  0  0  0  0  0  0  0
   -5.8072    1.2643    0.9699 H   0  0  0  0  0  0  0  0  0  0  0  0
  1 22  1  0  0  0  0
  2  7  1  0  0  0  0
  2  8  1  0  0  0  0
  3  5  1  0  0  0  0
  3 16  1  0  0  0  0
  4  6  1  0  0  0  0
  4 10  1  0  0  0  0
  4 29  1  0  0  0  0
  5 12  2  0  0  0  0
  6  7  1  0  0  0  0
  6  8  1  0  0  0  0
  6  9  1  0  0  0  0
  7 23  1  0  0  0  0
  7 24  1  0  0  0  0
  8 25  1  0  0  0  0
  8 26  1  0  0  0  0
  9 12  1  0  0  0  0
  9 27  1  0  0  0  0
  9 28  1  0  0  0  0
 10 11  1  0  0  0  0
 10 30  1  0  0  0  0
 10 31  1  0  0  0  0
 11 13  1  0  0  0  0
 11 14  1  0  0  0  0
 11 32  1  0  0  0  0
 12 15  1  0  0  0  0
 13 33  1  0  0  0  0
 13 34  1  0  0  0  0
 13 35  1  0  0  0  0
 14 36  1  0  0  0  0
 14 37  1  0  0  0  0
 14 38  1  0  0  0  0
 15 16  2  0  0  0  0
 15 39  1  0  0  0  0
 16 17  1  0  0  0  0
 17 18  2  0  0  0  0
 17 19  1  0  0  0  0
 18 20  1  0  0  0  0
 18 40  1  0  0  0  0
 19 21  2  0  0  0  0
 19 41  1  0  0  0  0
 20 22  2  0  0  0  0
 20 42  1  0  0  0  0
 21 22  1  0  0  0  0
 21 43  1  0  0  0  0
M  END
> <PUBCHEM_COMPOUND_CID>
71694075

> <PUBCHEM_CONFORMER_RMSD>
0.8

> <PUBCHEM_CONFORMER_DIVERSEORDER>
1
49
22
23
5
53
45
34
47
6
17
24
14
28
15
41
42
18
46
12
44
3
50
32
33
29
31
26
7
48
4
35
10
52
43
30
40
27
20
2
38
21
39
51
13
36
11
19
9
25
37
8
16

> <PUBCHEM_MMFF94_PARTIAL_CHARGES>
25
1 -0.19
10 0.27
12 0.11
15 -0.15
16 0.09
17 0.05
18 -0.15
19 -0.15
2 -0.52
20 -0.15
21 -0.15
22 0.19
29 0.36
3 -0.02
39 0.15
4 -0.84
40 0.15
41 0.15
42 0.15
43 0.15
5 -0.41
6 0.21
7 0.26
8 0.26
9 0.18

> <PUBCHEM_EFFECTIVE_ROTOR_COUNT>
6.8

> <PUBCHEM_PHARMACOPHORE_FEATURES>
8
1 2 acceptor
1 4 cation
1 4 donor
1 5 acceptor
3 11 13 14 hydrophobe
4 2 6 7 8 rings
5 3 5 12 15 16 rings
6 17 18 19 20 21 22 rings

> <PUBCHEM_HEAVY_ATOM_COUNT>
22

> <PUBCHEM_ATOM_DEF_STEREO_COUNT>
0

> <PUBCHEM_ATOM_UDEF_STEREO_COUNT>
0

> <PUBCHEM_BOND_DEF_STEREO_COUNT>
0

> <PUBCHEM_BOND_UDEF_STEREO_COUNT>
0

> <PUBCHEM_ISOTOPIC_ATOM_COUNT>
0

> <PUBCHEM_COMPONENT_COUNT>
1

> <PUBCHEM_CACTVS_TAUTO_COUNT>
1

> <PUBCHEM_CONFORMER_ID>
0445F6FB00000001

> <PUBCHEM_MMFF94_ENERGY>
43.5341

> <PUBCHEM_FEATURE_SELFOVERLAP>
40.596

> <PUBCHEM_SHAPE_FINGERPRINT>
11070050 100 17916001629860682440
11405975 8 18269275660278289745
114674 6 18333449829086335994
12107183 9 17982460287003892353
12596602 18 17489315251670203235
12633257 1 17986400987842525515
12788726 201 16916798352838334569
12892183 10 18343021107796881277
13073987 5 18341899593510324177
13140716 1 18197218048949716269
13150687 139 17679328466743744196
13533116 47 18342177769667314755
13551218 46 18410298004319230903
13583140 156 18200861946590909437
13675066 3 18334295375108160565
13955234 65 18341608239997952736
14178342 30 18054213603893700646
14211702 104 17968949716235413835
14251740 57 18411139116954124723
14252887 29 18261111885120701640
14617045 38 18410301340664703862
14790565 3 17977108186570327132
14863182 85 18261396689176764174
14866123 147 17546447778366955809
15142526 21 17485069036516812816
15196674 1 18410013213205449871
15352361 1 18263927635536307270
15475509 84 17916589709051223568
16992610 120 18047481303969438092
17492 89 18337390444115306967
17859628 70 18341614776764519302
17959699 21 9151168749168432719
1813 80 17458348541613395741
20645477 70 17968097546645147189
21033648 29 14764353691600024049
21033650 10 16082210680014871389
21065198 48 18272375256761091545
21197605 99 18267025135848910450
21279426 13 18261949632051694661
21421861 104 18411980235223071490
21503847 285 9799698094857693102
21673915 165 18339358681608868231
22224240 67 18198615722045525432
22956985 138 17825370905366577346
23559900 14 18335697196224382404
3117164 225 17983305824325350521
33824 294 18410572907663344534
3421961 26 18410292467652601762
3472631 163 9007057955255480131
4990 188 11747202576709561201
5104073 3 18271255949940044793
5486654 36 18050855412046298738
621550 34 18336255834342258260
6442390 28 18197773517655378080
7288768 16 16624298783880224176
9709674 26 18259708908241201723

> <PUBCHEM_SHAPE_MULTIPOLES>
423.78
12.51
3.37
0.96
12.92
2.24
0.01
5.08
3.01
-4.79
0.46
-0.51
-0.23
0.19

> <PUBCHEM_SHAPE_SELFOVERLAP>
898.657

> <PUBCHEM_SHAPE_VOLUME>
240.5

> <PUBCHEM_COORDINATE_TYPE>
2
5
10

$$$$
