71693044
  -OEChem-12032416343D

 65 67  0     1  0  0  0  0  0999 V2000
    4.0837   -1.5975   -1.3346 O   0  0  0  0  0  0  0  0  0  0  0  0
    3.8964    0.0574    0.2873 N   0  0  0  0  0  0  0  0  0  0  0  0
   -2.8009    0.7155    1.3921 N   0  0  0  0  0  0  0  0  0  0  0  0
   -1.7572   -0.7390    0.0750 N   0  0  0  0  0  0  0  0  0  0  0  0
    3.1638   -3.4655    0.4477 N   0  0  0  0  0  0  0  0  0  0  0  0
    1.4868    1.2977   -1.0162 C   0  0  1  0  0  0  0  0  0  0  0  0
    2.7255    2.0558   -0.4768 C   0  0  1  0  0  0  0  0  0  0  0  0
    0.1935    1.9727   -0.5347 C   0  0  0  0  0  0  0  0  0  0  0  0
    0.1017    2.0268    1.0020 C   0  0  2  0  0  0  0  0  0  0  0  0
    1.4912    1.2167   -2.5458 C   0  0  0  0  0  0  0  0  0  0  0  0
    1.3930    2.5156    1.6264 C   0  0  0  0  0  0  0  0  0  0  0  0
    2.5529    2.5337    0.9459 C   0  0  0  0  0  0  0  0  0  0  0  0
    3.9887    1.1928   -0.5759 C   0  0  0  0  0  0  0  0  0  0  0  0
   -0.3066    0.6669    1.5791 C   0  0  0  0  0  0  0  0  0  0  0  0
    0.6678    0.0225   -3.0178 C   0  0  0  0  0  0  0  0  0  0  0  0
    0.9590    2.5128   -3.1488 C   0  0  0  0  0  0  0  0  0  0  0  0
    1.3116    3.0263    3.0380 C   0  0  0  0  0  0  0  0  0  0  0  0
   -1.6040    0.1891    0.9927 C   0  0  0  0  0  0  0  0  0  0  0  0
    3.9512   -1.2645   -0.1589 C   0  0  0  0  0  0  0  0  0  0  0  0
   -3.7923    0.0853    0.6849 C   0  0  0  0  0  0  0  0  0  0  0  0
   -3.1155   -0.8179   -0.1300 C   0  0  0  0  0  0  0  0  0  0  0  0
    3.7967   -2.2629    0.9699 C   0  0  0  0  0  0  0  0  0  0  0  0
   -5.1807    0.2234    0.6880 C   0  0  0  0  0  0  0  0  0  0  0  0
   -3.8515   -1.6403   -0.9996 C   0  0  0  0  0  0  0  0  0  0  0  0
   -5.8974   -0.6030   -0.1837 C   0  0  0  0  0  0  0  0  0  0  0  0
   -5.2466   -1.5189   -1.0134 C   0  0  0  0  0  0  0  0  0  0  0  0
   -7.3871   -0.5021   -0.2269 C   0  0  0  0  0  0  0  0  0  0  0  0
    1.7153   -3.2804    0.3341 C   0  0  0  0  0  0  0  0  0  0  0  0
    3.4609   -4.6190    1.3001 C   0  0  0  0  0  0  0  0  0  0  0  0
    1.4966    0.2756   -0.6188 H   0  0  0  0  0  0  0  0  0  0  0  0
    2.8974    2.9547   -1.0821 H   0  0  0  0  0  0  0  0  0  0  0  0
   -0.6945    1.5126   -0.9759 H   0  0  0  0  0  0  0  0  0  0  0  0
    0.1746    3.0221   -0.8596 H   0  0  0  0  0  0  0  0  0  0  0  0
   -0.6846    2.7575    1.2405 H   0  0  0  0  0  0  0  0  0  0  0  0
    2.5096    1.0634   -2.9173 H   0  0  0  0  0  0  0  0  0  0  0  0
    3.4394    2.9396    1.4294 H   0  0  0  0  0  0  0  0  0  0  0  0
    4.8644    1.7658   -0.2478 H   0  0  0  0  0  0  0  0  0  0  0  0
    4.1895    0.8771   -1.6032 H   0  0  0  0  0  0  0  0  0  0  0  0
   -0.4226    0.7282    2.6684 H   0  0  0  0  0  0  0  0  0  0  0  0
    0.4664   -0.0899    1.3972 H   0  0  0  0  0  0  0  0  0  0  0  0
    0.6999   -0.0564   -4.1101 H   0  0  0  0  0  0  0  0  0  0  0  0
    1.0654   -0.9130   -2.6096 H   0  0  0  0  0  0  0  0  0  0  0  0
   -0.3838    0.0997   -2.7250 H   0  0  0  0  0  0  0  0  0  0  0  0
    1.4637    3.4003   -2.7558 H   0  0  0  0  0  0  0  0  0  0  0  0
    1.1414    2.5073   -4.2306 H   0  0  0  0  0  0  0  0  0  0  0  0
   -0.1233    2.6306   -3.0311 H   0  0  0  0  0  0  0  0  0  0  0  0
    0.5625    3.8213    3.1119 H   0  0  0  0  0  0  0  0  0  0  0  0
    2.2654    3.4407    3.3819 H   0  0  0  0  0  0  0  0  0  0  0  0
    1.0360    2.2220    3.7263 H   0  0  0  0  0  0  0  0  0  0  0  0
    3.8470    0.2263    1.2879 H   0  0  0  0  0  0  0  0  0  0  0  0
   -2.9337    1.4409    2.0843 H   0  0  0  0  0  0  0  0  0  0  0  0
    3.2459   -1.8361    1.8167 H   0  0  0  0  0  0  0  0  0  0  0  0
    4.8185   -2.4718    1.3125 H   0  0  0  0  0  0  0  0  0  0  0  0
   -5.6734    0.9376    1.3388 H   0  0  0  0  0  0  0  0  0  0  0  0
   -3.3548   -2.3550   -1.6480 H   0  0  0  0  0  0  0  0  0  0  0  0
   -5.8201   -2.1550   -1.6840 H   0  0  0  0  0  0  0  0  0  0  0  0
   -7.8329   -1.2462    0.4406 H   0  0  0  0  0  0  0  0  0  0  0  0
   -7.7280    0.4922    0.0813 H   0  0  0  0  0  0  0  0  0  0  0  0
   -7.7624   -0.6684   -1.2424 H   0  0  0  0  0  0  0  0  0  0  0  0
    1.4722   -2.4484   -0.3359 H   0  0  0  0  0  0  0  0  0  0  0  0
    1.2440   -3.0874    1.3050 H   0  0  0  0  0  0  0  0  0  0  0  0
    1.2498   -4.1724   -0.1004 H   0  0  0  0  0  0  0  0  0  0  0  0
    4.5404   -4.8029    1.3373 H   0  0  0  0  0  0  0  0  0  0  0  0
    3.0037   -5.5273    0.8919 H   0  0  0  0  0  0  0  0  0  0  0  0
    3.0976   -4.4789    2.3247 H   0  0  0  0  0  0  0  0  0  0  0  0
  1 19  2  0  0  0  0
  2 13  1  0  0  0  0
  2 19  1  0  0  0  0
  2 50  1  0  0  0  0
  3 18  1  0  0  0  0
  3 20  1  0  0  0  0
  3 51  1  0  0  0  0
  4 18  2  0  0  0  0
  4 21  1  0  0  0  0
  5 22  1  0  0  0  0
  5 28  1  0  0  0  0
  5 29  1  0  0  0  0
  6  7  1  0  0  0  0
  6  8  1  0  0  0  0
  6 10  1  0  0  0  0
  6 30  1  0  0  0  0
  7 12  1  0  0  0  0
  7 13  1  0  0  0  0
  7 31  1  0  0  0  0
  8  9  1  0  0  0  0
  8 32  1  0  0  0  0
  8 33  1  0  0  0  0
  9 11  1  0  0  0  0
  9 14  1  0  0  0  0
  9 34  1  0  0  0  0
 10 15  1  0  0  0  0
 10 16  1  0  0  0  0
 10 35  1  0  0  0  0
 11 12  2  0  0  0  0
 11 17  1  0  0  0  0
 12 36  1  0  0  0  0
 13 37  1  0  0  0  0
 13 38  1  0  0  0  0
 14 18  1  0  0  0  0
 14 39  1  0  0  0  0
 14 40  1  0  0  0  0
 15 41  1  0  0  0  0
 15 42  1  0  0  0  0
 15 43  1  0  0  0  0
 16 44  1  0  0  0  0
 16 45  1  0  0  0  0
 16 46  1  0  0  0  0
 17 47  1  0  0  0  0
 17 48  1  0  0  0  0
 17 49  1  0  0  0  0
 19 22  1  0  0  0  0
 20 21  2  0  0  0  0
 20 23  1  0  0  0  0
 21 24  1  0  0  0  0
 22 52  1  0  0  0  0
 22 53  1  0  0  0  0
 23 25  2  0  0  0  0
 23 54  1  0  0  0  0
 24 26  2  0  0  0  0
 24 55  1  0  0  0  0
 25 26  1  0  0  0  0
 25 27  1  0  0  0  0
 26 56  1  0  0  0  0
 27 57  1  0  0  0  0
 27 58  1  0  0  0  0
 27 59  1  0  0  0  0
 28 60  1  0  0  0  0
 28 61  1  0  0  0  0
 28 62  1  0  0  0  0
 29 63  1  0  0  0  0
 29 64  1  0  0  0  0
 29 65  1  0  0  0  0
M  END
> <PUBCHEM_COMPOUND_CID>
71693044

> <PUBCHEM_CONFORMER_RMSD>
1

> <PUBCHEM_CONFORMER_DIVERSEORDER>
1
58
133
143
100
79
87
105
29
62
36
141
119
34
46
142
135
153
113
84
27
128
15
123
124
22
102
130
73
127
93
83
65
28
5
21
17
109
2
146
150
33
90
92
112
108
24
44
40
151
96
66
9
99
67
103
8
59
77
51
140
80
152
43
23
129
38
71
55
11
48
69
42
41
64
35
54
111
12
134
63
126
85
104
114
19
154
94
121
30
39
97
37
76
10
91
139
107
118
136
56
95
20
125
86
57
25
52
106
120
145
147
47
82
61
68
131
78
18
122
137
49
89
138
148
88
13
31
6
60
115
72
155
45
70
50
101
110
117
81
14
3
144
26
98
7
74
53
149
4
132
32
116
16
75

> <PUBCHEM_MMFF94_PARTIAL_CHARGES>
30
1 -0.57
11 -0.28
12 -0.29
13 0.3
14 0.18
17 0.14
18 0.01
19 0.57
2 -0.73
20 -0.15
21 0.23
22 0.33
23 -0.15
24 -0.15
25 -0.14
26 -0.15
27 0.14
28 0.27
29 0.27
3 0.03
36 0.15
4 -0.57
5 -0.81
50 0.37
51 0.27
54 0.15
55 0.15
56 0.15
7 0.14
9 0.14

> <PUBCHEM_EFFECTIVE_ROTOR_COUNT>
8.8

> <PUBCHEM_PHARMACOPHORE_FEATURES>
9
1 1 acceptor
1 2 donor
1 3 donor
1 5 cation
3 10 15 16 hydrophobe
3 3 4 18 cation
5 3 4 18 20 21 rings
6 20 21 23 24 25 26 rings
6 6 7 8 9 11 12 rings

> <PUBCHEM_HEAVY_ATOM_COUNT>
29

> <PUBCHEM_ATOM_DEF_STEREO_COUNT>
3

> <PUBCHEM_ATOM_UDEF_STEREO_COUNT>
0

> <PUBCHEM_BOND_DEF_STEREO_COUNT>
0

> <PUBCHEM_BOND_UDEF_STEREO_COUNT>
0

> <PUBCHEM_ISOTOPIC_ATOM_COUNT>
0

> <PUBCHEM_COMPONENT_COUNT>
1

> <PUBCHEM_CACTVS_TAUTO_COUNT>
6

> <PUBCHEM_CONFORMER_ID>
0445F2F400000001

> <PUBCHEM_MMFF94_ENERGY>
56.9529

> <PUBCHEM_FEATURE_SELFOVERLAP>
45.778

> <PUBCHEM_SHAPE_FINGERPRINT>
10816530 23 17392489087583779741
11796584 16 17632020870281728647
12156800 1 16375470188472021202
13533116 47 18413387657404135915
14068700 675 18270405975928113530
15183329 4 17918000495061507449
15664445 248 17168142351809745492
17349148 13 16702027495595453809
17980427 26 17842249730811178912
1813 80 18041555819733934035
18681886 176 15984548952280796456
20511986 3 17988634246430301261
20626108 58 17632859737060209337
20775530 9 17899704453581441434
21285901 2 17531240634922356446
21421861 104 18127434292023100793
23559900 14 18260830453610498987
25222932 49 17485077845552635559
345986 75 18199182897798107106
4093350 32 17749674103153518069
46194498 28 17458627852010751327
463206 1 18340771528133180619
484985 159 17110436395439459666
57527306 92 17131551747699581232
57527573 199 16327081149747982030
8509985 295 18060420231047098333

> <PUBCHEM_SHAPE_MULTIPOLES>
571.01
11.74
4.29
2.53
22.42
4.05
-1.22
7.07
-0.42
-7.34
1.82
-1.63
-2.18
-1.38

> <PUBCHEM_SHAPE_SELFOVERLAP>
1191.542

> <PUBCHEM_SHAPE_VOLUME>
325.8

> <PUBCHEM_COORDINATE_TYPE>
2
5
10

$$$$
