75367193
  -OEChem-12032416383D

 47 49  0     1  0  0  0  0  0999 V2000
    5.1819    2.8345    0.7105 F   0  0  0  0  0  0  0  0  0  0  0  0
   -0.2495   -4.0483    0.9417 O   0  0  0  0  0  0  0  0  0  0  0  0
    0.6759   -1.5391   -0.0816 N   0  0  1  0  0  0  0  0  0  0  0  0
   -2.0310   -0.0716    0.2750 N   0  0  0  0  0  0  0  0  0  0  0  0
   -2.3792   -0.7877   -1.7980 N   0  0  0  0  0  0  0  0  0  0  0  0
   -0.6663   -2.0692   -0.4321 C   0  0  1  0  0  0  0  0  0  0  0  0
   -1.1788   -2.9949    0.6886 C   0  0  0  0  0  0  0  0  0  0  0  0
    1.5901   -2.6460    0.2523 C   0  0  0  0  0  0  0  0  0  0  0  0
   -1.7024   -0.9842   -0.6884 C   0  0  0  0  0  0  0  0  0  0  0  0
   -3.5706    1.8719    0.5037 C   0  0  0  0  0  0  0  0  0  0  0  0
   -2.9776    0.7598   -0.2540 C   0  0  0  0  0  0  0  0  0  0  0  0
    1.2587   -0.7461   -1.1702 C   0  0  0  0  0  0  0  0  0  0  0  0
    1.0056   -3.5150    1.3575 C   0  0  0  0  0  0  0  0  0  0  0  0
   -3.1760    0.2981   -1.5338 C   0  0  0  0  0  0  0  0  0  0  0  0
   -4.3308    1.4817    1.8255 C   0  0  0  0  0  0  0  0  0  0  0  0
   -2.4904    2.9124    0.9608 C   0  0  0  0  0  0  0  0  0  0  0  0
   -4.6285    2.6604   -0.3434 C   0  0  0  0  0  0  0  0  0  0  0  0
    2.3071    0.2106   -0.6679 C   0  0  0  0  0  0  0  0  0  0  0  0
    1.9442    1.4985   -0.2737 C   0  0  0  0  0  0  0  0  0  0  0  0
    3.6411   -0.1908   -0.5963 C   0  0  0  0  0  0  0  0  0  0  0  0
    2.9152    2.3851    0.1917 C   0  0  0  0  0  0  0  0  0  0  0  0
    4.6122    0.6958   -0.1310 C   0  0  0  0  0  0  0  0  0  0  0  0
    4.2492    1.9838    0.2630 C   0  0  0  0  0  0  0  0  0  0  0  0
   -0.5713   -2.6699   -1.3484 H   0  0  0  0  0  0  0  0  0  0  0  0
   -1.3682   -2.4541    1.6250 H   0  0  0  0  0  0  0  0  0  0  0  0
   -2.1257   -3.4599    0.3908 H   0  0  0  0  0  0  0  0  0  0  0  0
    2.5504   -2.2747    0.6189 H   0  0  0  0  0  0  0  0  0  0  0  0
    1.7750   -3.2694   -0.6324 H   0  0  0  0  0  0  0  0  0  0  0  0
    1.6691   -1.3823   -1.9670 H   0  0  0  0  0  0  0  0  0  0  0  0
    0.4996   -0.1356   -1.6753 H   0  0  0  0  0  0  0  0  0  0  0  0
    1.6735   -4.3579    1.5621 H   0  0  0  0  0  0  0  0  0  0  0  0
    0.8807   -2.9563    2.2932 H   0  0  0  0  0  0  0  0  0  0  0  0
   -1.6407   -0.0197    1.2068 H   0  0  0  0  0  0  0  0  0  0  0  0
   -3.8490    0.6841   -2.2858 H   0  0  0  0  0  0  0  0  0  0  0  0
   -4.7572    2.3586    2.3251 H   0  0  0  0  0  0  0  0  0  0  0  0
   -5.1451    0.7822    1.6045 H   0  0  0  0  0  0  0  0  0  0  0  0
   -3.6542    0.9841    2.5296 H   0  0  0  0  0  0  0  0  0  0  0  0
   -2.9456    3.7663    1.4752 H   0  0  0  0  0  0  0  0  0  0  0  0
   -1.7640    2.4561    1.6432 H   0  0  0  0  0  0  0  0  0  0  0  0
   -1.9354    3.2965    0.0969 H   0  0  0  0  0  0  0  0  0  0  0  0
   -5.0491    3.5003    0.2216 H   0  0  0  0  0  0  0  0  0  0  0  0
   -4.1760    3.0700   -1.2542 H   0  0  0  0  0  0  0  0  0  0  0  0
   -5.4582    2.0093   -0.6425 H   0  0  0  0  0  0  0  0  0  0  0  0
    0.9079    1.8231   -0.3215 H   0  0  0  0  0  0  0  0  0  0  0  0
    3.9445   -1.1839   -0.9161 H   0  0  0  0  0  0  0  0  0  0  0  0
    2.6328    3.3876    0.4994 H   0  0  0  0  0  0  0  0  0  0  0  0
    5.6515    0.3851   -0.0789 H   0  0  0  0  0  0  0  0  0  0  0  0
  1 23  1  0  0  0  0
  2  7  1  0  0  0  0
  2 13  1  0  0  0  0
  3  6  1  0  0  0  0
  3  8  1  0  0  0  0
  3 12  1  0  0  0  0
  4  9  1  0  0  0  0
  4 11  1  0  0  0  0
  4 33  1  0  0  0  0
  5  9  2  0  0  0  0
  5 14  1  0  0  0  0
  6  7  1  0  0  0  0
  6  9  1  0  0  0  0
  6 24  1  0  0  0  0
  7 25  1  0  0  0  0
  7 26  1  0  0  0  0
  8 13  1  0  0  0  0
  8 27  1  0  0  0  0
  8 28  1  0  0  0  0
 10 11  1  0  0  0  0
 10 15  1  0  0  0  0
 10 16  1  0  0  0  0
 10 17  1  0  0  0  0
 11 14  2  0  0  0  0
 12 18  1  0  0  0  0
 12 29  1  0  0  0  0
 12 30  1  0  0  0  0
 13 31  1  0  0  0  0
 13 32  1  0  0  0  0
 14 34  1  0  0  0  0
 15 35  1  0  0  0  0
 15 36  1  0  0  0  0
 15 37  1  0  0  0  0
 16 38  1  0  0  0  0
 16 39  1  0  0  0  0
 16 40  1  0  0  0  0
 17 41  1  0  0  0  0
 17 42  1  0  0  0  0
 17 43  1  0  0  0  0
 18 19  2  0  0  0  0
 18 20  1  0  0  0  0
 19 21  1  0  0  0  0
 19 44  1  0  0  0  0
 20 22  2  0  0  0  0
 20 45  1  0  0  0  0
 21 23  2  0  0  0  0
 21 46  1  0  0  0  0
 22 23  1  0  0  0  0
 22 47  1  0  0  0  0
M  END
> <PUBCHEM_COMPOUND_CID>
75367193

> <PUBCHEM_CONFORMER_RMSD>
0.8

> <PUBCHEM_CONFORMER_DIVERSEORDER>
1
43
16
9
45
19
25
46
49
40
24
34
26
15
14
47
37
36
6
42
31
17
41
44
32
10
39
50
3
8
12
48
11
35
20
2
23
38
33
27
4
30
21
29
18
22
5
28
13
7

> <PUBCHEM_MMFF94_PARTIAL_CHARGES>
26
1 -0.19
10 0.18
11 -0.33
12 0.41
13 0.28
14 0.08
18 -0.14
19 -0.15
2 -0.56
20 -0.15
21 -0.15
22 -0.15
23 0.19
3 -0.81
33 0.27
34 0.15
4 0.03
44 0.15
45 0.15
46 0.15
47 0.15
5 -0.57
6 0.45
7 0.28
8 0.27
9 0.01

> <PUBCHEM_EFFECTIVE_ROTOR_COUNT>
5.2

> <PUBCHEM_PHARMACOPHORE_FEATURES>
8
1 2 acceptor
1 3 cation
1 4 donor
3 4 5 9 cation
4 10 15 16 17 hydrophobe
5 4 5 9 11 14 rings
6 18 19 20 21 22 23 rings
6 2 3 6 7 8 13 rings

> <PUBCHEM_HEAVY_ATOM_COUNT>
23

> <PUBCHEM_ATOM_DEF_STEREO_COUNT>
1

> <PUBCHEM_ATOM_UDEF_STEREO_COUNT>
0

> <PUBCHEM_BOND_DEF_STEREO_COUNT>
0

> <PUBCHEM_BOND_UDEF_STEREO_COUNT>
0

> <PUBCHEM_ISOTOPIC_ATOM_COUNT>
0

> <PUBCHEM_COMPONENT_COUNT>
1

> <PUBCHEM_CACTVS_TAUTO_COUNT>
2

> <PUBCHEM_CONFORMER_ID>
047E031900000001

> <PUBCHEM_MMFF94_ENERGY>
49.839

> <PUBCHEM_FEATURE_SELFOVERLAP>
40.597

> <PUBCHEM_SHAPE_FINGERPRINT>
10006869 2 18410009970827817403
10165383 225 17898036588345479238
10291535 26 18125718139472525848
10382601 240 18264212413363447900
1100329 8 18265050233077601050
11036077 51 18336540633438675866
11640471 11 18129938958394910311
11646440 116 17829904479175496163
12107183 9 18261657239442236600
12160290 23 17753063961647197582
12293681 160 17905017577140069351
12403259 327 14201389469986294095
12633257 1 18335689534482527148
12788726 201 17976805803286494666
13140716 1 18261391100823613722
13464514 151 18341619183379638878
13583140 156 17901396597950068153
13590594 115 17548705084429227026
138480 1 17617096906309382890
13878862 14 17683229275879484357
13965767 371 17968087569504846380
14787075 74 18195520614056541455
14955137 171 17833276315542809147
19765921 60 18343303643524655483
20510252 161 17974847577372262702
20739085 24 18041564616349130684
21041028 32 17110160417530433375
21401589 2 18343026635124113353
21524375 3 18411702084313976711
21864079 5 17985551048628501157
22122407 14 17836379146785046257
22182937 141 18339931522766113395
23558518 356 18338239387245702150
23559900 14 18339643443290160116
23845131 108 18260833670573016131
283562 15 18191860343821180911
392239 28 18266474272613299419
469060 322 18114186397470272557
474 4 18337946775661171331
5048184 11 18412825767970481161
5104073 3 18191576653205302928
57091435 65 18049445846460542112
5895379 119 17199670662693555440
59124914 9 18340207384679763864
5939293 188 17405153919874380773
6328613 192 18337113467008969028
633830 44 18341891883711433004
7288768 16 18333735736183887681
79837 15 18261675986183608426
81228 2 17681285677901233854
84936 182 18340762637661127922
9981440 41 18200021971399668858

> <PUBCHEM_SHAPE_MULTIPOLES>
445.24
9.08
4.63
1.33
0.96
2.85
0.03
-10.71
-0.96
1.37
-2.18
-1.11
0.27
-0.51

> <PUBCHEM_SHAPE_SELFOVERLAP>
940.2

> <PUBCHEM_SHAPE_VOLUME>
253.5

> <PUBCHEM_COORDINATE_TYPE>
2
5
10

$$$$
