7127962
  -OEChem-12032416153D

 65 66  0     1  0  0  0  0  0999 V2000
   -3.9001    3.4547    2.2162 S   0  0  0  0  0  0  0  0  0  0  0  0
    6.5540    0.6638    2.3003 S   0  0  0  0  0  0  0  0  0  0  0  0
   -2.1496   -0.2625    1.1721 O   0  0  0  0  0  0  0  0  0  0  0  0
   -5.0774    0.7088    0.7161 O   0  0  0  0  0  0  0  0  0  0  0  0
    1.4945    1.6640   -2.5020 O   0  0  0  0  0  0  0  0  0  0  0  0
   -1.1515   -5.2504    0.8000 O   0  0  0  0  0  0  0  0  0  0  0  0
   -2.3487   -4.5310   -1.0257 O   0  0  0  0  0  0  0  0  0  0  0  0
   -3.2479    1.4798   -0.4739 N   0  0  0  0  0  0  0  0  0  0  0  0
   -0.1123    1.6548   -0.8392 N   0  0  0  0  0  0  0  0  0  0  0  0
   -1.8675   -1.8926   -0.4656 N   0  0  0  0  0  0  0  0  0  0  0  0
    2.0916    1.3746   -0.2501 N   0  0  0  0  0  0  0  0  0  0  0  0
   -2.8808    0.1961   -1.0536 C   0  0  1  0  0  0  0  0  0  0  0  0
   -1.2496    1.8564   -1.7017 C   0  0  1  0  0  0  0  0  0  0  0  0
   -1.8687    0.5290   -2.1476 C   0  0  0  0  0  0  0  0  0  0  0  0
   -2.3945    2.5564   -0.9764 C   0  0  0  0  0  0  0  0  0  0  0  0
   -2.2725   -0.6597    0.0165 C   0  0  0  0  0  0  0  0  0  0  0  0
   -4.3806    1.6403    0.3097 C   0  0  0  0  0  0  0  0  0  0  0  0
   -1.2304   -2.8935    0.3593 C   0  0  2  0  0  0  0  0  0  0  0  0
    0.3066   -2.7472    0.3841 C   0  0  0  0  0  0  0  0  0  0  0  0
   -4.7278    3.0633    0.6682 C   0  0  0  0  0  0  0  0  0  0  0  0
    1.2039    1.5716   -1.3117 C   0  0  0  0  0  0  0  0  0  0  0  0
   -1.6463   -4.3034   -0.0458 C   0  0  0  0  0  0  0  0  0  0  0  0
    0.7901   -1.5842    1.2570 C   0  0  0  0  0  0  0  0  0  0  0  0
    0.8736   -2.6085   -1.0320 C   0  0  0  0  0  0  0  0  0  0  0  0
    3.4984    1.2401   -0.3085 C   0  0  0  0  0  0  0  0  0  0  0  0
   -4.4663    5.1626    2.4119 C   0  0  0  0  0  0  0  0  0  0  0  0
    4.2305    1.0464    0.8629 C   0  0  0  0  0  0  0  0  0  0  0  0
    4.1535    1.3013   -1.5384 C   0  0  0  0  0  0  0  0  0  0  0  0
   -1.4984   -6.6041    0.4902 C   0  0  0  0  0  0  0  0  0  0  0  0
    5.6178    0.9136    0.8042 C   0  0  0  0  0  0  0  0  0  0  0  0
    5.5409    1.1688   -1.5970 C   0  0  0  0  0  0  0  0  0  0  0  0
    6.2728    0.9748   -0.4257 C   0  0  0  0  0  0  0  0  0  0  0  0
    5.8428   -0.8842    2.9263 C   0  0  0  0  0  0  0  0  0  0  0  0
   -3.7710   -0.3080   -1.4466 H   0  0  0  0  0  0  0  0  0  0  0  0
   -0.9185    2.4446   -2.5645 H   0  0  0  0  0  0  0  0  0  0  0  0
   -2.4164    0.7007   -3.0838 H   0  0  0  0  0  0  0  0  0  0  0  0
   -1.1221   -0.2443   -2.3446 H   0  0  0  0  0  0  0  0  0  0  0  0
   -2.9914    3.1380   -1.6881 H   0  0  0  0  0  0  0  0  0  0  0  0
   -2.0637    3.2114   -0.1663 H   0  0  0  0  0  0  0  0  0  0  0  0
   -0.2774    1.5164    0.1530 H   0  0  0  0  0  0  0  0  0  0  0  0
   -2.0325   -2.1217   -1.4416 H   0  0  0  0  0  0  0  0  0  0  0  0
   -1.6170   -2.7630    1.3792 H   0  0  0  0  0  0  0  0  0  0  0  0
    0.7437   -3.6552    0.8188 H   0  0  0  0  0  0  0  0  0  0  0  0
   -5.8128    3.1229    0.8052 H   0  0  0  0  0  0  0  0  0  0  0  0
   -4.4587    3.7704   -0.1186 H   0  0  0  0  0  0  0  0  0  0  0  0
    1.8844   -1.5602    1.2975 H   0  0  0  0  0  0  0  0  0  0  0  0
    0.4209   -1.6913    2.2821 H   0  0  0  0  0  0  0  0  0  0  0  0
    0.4483   -0.6233    0.8719 H   0  0  0  0  0  0  0  0  0  0  0  0
    1.9687   -2.6428   -1.0061 H   0  0  0  0  0  0  0  0  0  0  0  0
    0.5358   -3.4245   -1.6788 H   0  0  0  0  0  0  0  0  0  0  0  0
    0.5921   -1.6592   -1.4969 H   0  0  0  0  0  0  0  0  0  0  0  0
    1.6870    1.3303    0.6816 H   0  0  0  0  0  0  0  0  0  0  0  0
   -4.1263    5.7741    1.5720 H   0  0  0  0  0  0  0  0  0  0  0  0
   -5.5569    5.1967    2.4756 H   0  0  0  0  0  0  0  0  0  0  0  0
   -4.0504    5.5763    3.3344 H   0  0  0  0  0  0  0  0  0  0  0  0
    3.7108    1.0062    1.8179 H   0  0  0  0  0  0  0  0  0  0  0  0
    3.6571    1.4483   -2.4871 H   0  0  0  0  0  0  0  0  0  0  0  0
   -1.0404   -7.2527    1.2417 H   0  0  0  0  0  0  0  0  0  0  0  0
   -1.1090   -6.8785   -0.4948 H   0  0  0  0  0  0  0  0  0  0  0  0
   -2.5841   -6.7350    0.5279 H   0  0  0  0  0  0  0  0  0  0  0  0
    6.0521    1.2160   -2.5543 H   0  0  0  0  0  0  0  0  0  0  0  0
    7.3533    0.8729   -0.4914 H   0  0  0  0  0  0  0  0  0  0  0  0
    4.7970   -0.7434    3.2109 H   0  0  0  0  0  0  0  0  0  0  0  0
    5.9109   -1.6683    2.1674 H   0  0  0  0  0  0  0  0  0  0  0  0
    6.4022   -1.2034    3.8097 H   0  0  0  0  0  0  0  0  0  0  0  0
  1 20  1  0  0  0  0
  1 26  1  0  0  0  0
  2 30  1  0  0  0  0
  2 33  1  0  0  0  0
  3 16  2  0  0  0  0
  4 17  2  0  0  0  0
  5 21  2  0  0  0  0
  6 22  1  0  0  0  0
  6 29  1  0  0  0  0
  7 22  2  0  0  0  0
  8 12  1  0  0  0  0
  8 15  1  0  0  0  0
  8 17  1  0  0  0  0
  9 13  1  0  0  0  0
  9 21  1  0  0  0  0
  9 40  1  0  0  0  0
 10 16  1  0  0  0  0
 10 18  1  0  0  0  0
 10 41  1  0  0  0  0
 11 21  1  0  0  0  0
 11 25  1  0  0  0  0
 11 52  1  0  0  0  0
 12 14  1  0  0  0  0
 12 16  1  0  0  0  0
 12 34  1  0  0  0  0
 13 14  1  0  0  0  0
 13 15  1  0  0  0  0
 13 35  1  0  0  0  0
 14 36  1  0  0  0  0
 14 37  1  0  0  0  0
 15 38  1  0  0  0  0
 15 39  1  0  0  0  0
 17 20  1  0  0  0  0
 18 19  1  0  0  0  0
 18 22  1  0  0  0  0
 18 42  1  0  0  0  0
 19 23  1  0  0  0  0
 19 24  1  0  0  0  0
 19 43  1  0  0  0  0
 20 44  1  0  0  0  0
 20 45  1  0  0  0  0
 23 46  1  0  0  0  0
 23 47  1  0  0  0  0
 23 48  1  0  0  0  0
 24 49  1  0  0  0  0
 24 50  1  0  0  0  0
 24 51  1  0  0  0  0
 25 27  2  0  0  0  0
 25 28  1  0  0  0  0
 26 53  1  0  0  0  0
 26 54  1  0  0  0  0
 26 55  1  0  0  0  0
 27 30  1  0  0  0  0
 27 56  1  0  0  0  0
 28 31  2  0  0  0  0
 28 57  1  0  0  0  0
 29 58  1  0  0  0  0
 29 59  1  0  0  0  0
 29 60  1  0  0  0  0
 30 32  2  0  0  0  0
 31 32  1  0  0  0  0
 31 61  1  0  0  0  0
 32 62  1  0  0  0  0
 33 63  1  0  0  0  0
 33 64  1  0  0  0  0
 33 65  1  0  0  0  0
M  END
> <PUBCHEM_COMPOUND_CID>
7127962

> <PUBCHEM_CONFORMER_RMSD>
1.2

> <PUBCHEM_CONFORMER_DIVERSEORDER>
1
25
22
9
5
3
26
4
23
19
28
17
14
24
6
15
16
29
7
21
11
13
20
18
27
10
8
2
12

> <PUBCHEM_MMFF94_PARTIAL_CHARGES>
36
1 -0.46
10 -0.73
11 -0.55
12 0.36
13 0.3
15 0.3
16 0.57
17 0.57
18 0.36
2 -0.33
20 0.29
21 0.69
22 0.66
25 0.12
26 0.23
27 -0.15
28 -0.15
29 0.28
3 -0.57
30 0.1
31 -0.15
32 -0.15
33 0.23
4 -0.57
40 0.37
41 0.37
5 -0.57
52 0.37
56 0.15
57 0.15
6 -0.43
61 0.15
62 0.15
7 -0.57
8 -0.66
9 -0.73

> <PUBCHEM_EFFECTIVE_ROTOR_COUNT>
15

> <PUBCHEM_PHARMACOPHORE_FEATURES>
12
1 10 donor
1 11 donor
1 26 hydrophobe
1 3 acceptor
1 33 hydrophobe
1 4 acceptor
1 5 acceptor
1 7 acceptor
1 9 donor
3 19 23 24 hydrophobe
5 8 12 13 14 15 rings
6 25 27 28 30 31 32 rings

> <PUBCHEM_HEAVY_ATOM_COUNT>
33

> <PUBCHEM_ATOM_DEF_STEREO_COUNT>
3

> <PUBCHEM_ATOM_UDEF_STEREO_COUNT>
0

> <PUBCHEM_BOND_DEF_STEREO_COUNT>
0

> <PUBCHEM_BOND_UDEF_STEREO_COUNT>
0

> <PUBCHEM_ISOTOPIC_ATOM_COUNT>
0

> <PUBCHEM_COMPONENT_COUNT>
1

> <PUBCHEM_CACTVS_TAUTO_COUNT>
6

> <PUBCHEM_CONFORMER_ID>
006CC39A00000001

> <PUBCHEM_MMFF94_ENERGY>
81.8744

> <PUBCHEM_FEATURE_SELFOVERLAP>
60.948

> <PUBCHEM_SHAPE_FINGERPRINT>
10305334 12 17458346334200386851
10622 236 17606095511565442162
11552529 35 18193277618419267628
12422481 6 17823418189082950520
12633257 1 18335420192646594564
12788726 201 17760116259840390181
13726171 33 18120398664111896708
14363568 33 17760372084787566783
14395042 24 18189047767724193051
14739800 52 17698730207914087577
14840074 17 17821734918395844700
14866123 147 18264492965197126639
15021287 119 16805588267260476476
15250474 111 17969489572186009362
15320294 125 18041544863936661948
15420108 30 18336827498862917983
15537594 2 17385725807684811580
16067690 210 17274241856656921104
16728300 4 17676494994754913483
20775530 9 17615692168900272662
3383291 50 18411140281470127563
4112364 45 17551811226712234049
508706 21 18339932622821593590
5171179 24 17253433401817808437
79837 15 18411426132728433783
9896288 288 18341910562893753913

> <PUBCHEM_SHAPE_MULTIPOLES>
637.55
13.16
7.26
2.4
18.97
13.66
-0.63
-14.35
-7.28
-11.16
-3.1
1.62
-1.97
-3.37

> <PUBCHEM_SHAPE_SELFOVERLAP>
1276.872

> <PUBCHEM_SHAPE_VOLUME>
379.4

> <PUBCHEM_COORDINATE_TYPE>
2
5
10

$$$$
