45361422
  -OEChem-12032416313D

 81 83  0     1  0  0  0  0  0999 V2000
    0.0073   -2.3645   -1.7582 O   0  0  0  0  0  0  0  0  0  0  0  0
    4.6681   -2.5689    0.8507 O   0  0  0  0  0  0  0  0  0  0  0  0
   -5.4115    1.8838   -1.4643 O   0  0  0  0  0  0  0  0  0  0  0  0
    4.5236    1.8320   -1.9023 O   0  0  0  0  0  0  0  0  0  0  0  0
   -4.7200   -0.0780   -0.4290 N   0  0  0  0  0  0  0  0  0  0  0  0
    4.3249   -1.2605   -1.0335 N   0  0  0  0  0  0  0  0  0  0  0  0
   -0.7047    0.0398    1.1206 C   0  0  1  0  0  0  0  0  0  0  0  0
   -0.9160   -0.6864   -0.2494 C   0  0  2  0  0  0  0  0  0  0  0  0
   -2.4302   -1.0455   -0.4641 C   0  0  1  0  0  0  0  0  0  0  0  0
    0.0819   -1.8676   -0.4212 C   0  0  2  0  0  0  0  0  0  0  0  0
    0.7730    0.4791    1.2493 C   0  0  0  0  0  0  0  0  0  0  0  0
   -1.5792    1.3144    1.1558 C   0  0  0  0  0  0  0  0  0  0  0  0
    1.5509   -1.4437   -0.1886 C   0  0  1  0  0  0  0  0  0  0  0  0
   -3.3079    0.2327   -0.3519 C   0  0  2  0  0  0  0  0  0  0  0  0
    1.7512   -0.6811    1.1210 C   0  0  0  0  0  0  0  0  0  0  0  0
   -3.0571    1.0317    0.9268 C   0  0  0  0  0  0  0  0  0  0  0  0
   -1.0640   -0.8590    2.3310 C   0  0  0  0  0  0  0  0  0  0  0  0
    2.5036   -2.6446   -0.2330 C   0  0  2  0  0  0  0  0  0  0  0  0
   -2.7144   -1.7377   -1.8078 C   0  0  0  0  0  0  0  0  0  0  0  0
    2.1189   -3.6597    0.8376 C   0  0  0  0  0  0  0  0  0  0  0  0
    3.9438   -2.1725   -0.0599 C   0  0  0  0  0  0  0  0  0  0  0  0
   -5.6538    0.7795   -0.9816 C   0  0  0  0  0  0  0  0  0  0  0  0
   -7.0684    0.2251   -0.9344 C   0  0  0  0  0  0  0  0  0  0  0  0
   -7.8431    0.5402    0.3672 C   0  0  0  0  0  0  0  0  0  0  0  0
    5.6423   -0.6697   -1.0778 C   0  0  0  0  0  0  0  0  0  0  0  0
   -9.2547   -0.0693    0.3328 C   0  0  0  0  0  0  0  0  0  0  0  0
   -7.0710   -0.0854    1.5455 C   0  0  0  0  0  0  0  0  0  0  0  0
   -7.9501    2.0551    0.6063 C   0  0  0  0  0  0  0  0  0  0  0  0
    5.7260    0.5796   -0.2493 C   0  0  0  0  0  0  0  0  0  0  0  0
    5.1623    1.7731   -0.7002 C   0  0  0  0  0  0  0  0  0  0  0  0
    6.3769    0.5378    0.9836 C   0  0  0  0  0  0  0  0  0  0  0  0
    5.2496    2.9249    0.0818 C   0  0  0  0  0  0  0  0  0  0  0  0
    6.4642    1.6895    1.7658 C   0  0  0  0  0  0  0  0  0  0  0  0
    5.9005    2.8831    1.3148 C   0  0  0  0  0  0  0  0  0  0  0  0
    3.9772    3.0929   -2.2842 C   0  0  0  0  0  0  0  0  0  0  0  0
   -0.6716    0.0353   -1.0455 H   0  0  0  0  0  0  0  0  0  0  0  0
   -2.7407   -1.7528    0.3154 H   0  0  0  0  0  0  0  0  0  0  0  0
   -0.2368   -2.6724    0.2434 H   0  0  0  0  0  0  0  0  0  0  0  0
    0.9376    0.9823    2.2108 H   0  0  0  0  0  0  0  0  0  0  0  0
    1.0076    1.2200    0.4730 H   0  0  0  0  0  0  0  0  0  0  0  0
   -1.4587    1.8318    2.1162 H   0  0  0  0  0  0  0  0  0  0  0  0
   -1.2378    2.0174    0.3841 H   0  0  0  0  0  0  0  0  0  0  0  0
    1.8067   -0.7557   -1.0056 H   0  0  0  0  0  0  0  0  0  0  0  0
   -3.0669    0.8842   -1.2033 H   0  0  0  0  0  0  0  0  0  0  0  0
    2.7622   -0.2612    1.1770 H   0  0  0  0  0  0  0  0  0  0  0  0
    1.6424   -1.3180    2.0013 H   0  0  0  0  0  0  0  0  0  0  0  0
   -3.5972    1.9863    0.8802 H   0  0  0  0  0  0  0  0  0  0  0  0
   -3.4768    0.5032    1.7914 H   0  0  0  0  0  0  0  0  0  0  0  0
   -0.4909   -1.7902    2.3461 H   0  0  0  0  0  0  0  0  0  0  0  0
   -0.8598   -0.3361    3.2728 H   0  0  0  0  0  0  0  0  0  0  0  0
   -2.1187   -1.1451    2.3489 H   0  0  0  0  0  0  0  0  0  0  0  0
    2.4466   -3.1355   -1.2131 H   0  0  0  0  0  0  0  0  0  0  0  0
   -2.3176   -2.7567   -1.8186 H   0  0  0  0  0  0  0  0  0  0  0  0
   -3.7879   -1.8414   -1.9960 H   0  0  0  0  0  0  0  0  0  0  0  0
   -2.2846   -1.1756   -2.6433 H   0  0  0  0  0  0  0  0  0  0  0  0
   -5.0311   -0.9550   -0.0226 H   0  0  0  0  0  0  0  0  0  0  0  0
    0.2347   -1.6386   -2.3639 H   0  0  0  0  0  0  0  0  0  0  0  0
    1.1353   -4.1054    0.6740 H   0  0  0  0  0  0  0  0  0  0  0  0
    2.8257   -4.4993    0.8052 H   0  0  0  0  0  0  0  0  0  0  0  0
    2.1717   -3.2764    1.8592 H   0  0  0  0  0  0  0  0  0  0  0  0
   -7.0283   -0.8598   -1.0991 H   0  0  0  0  0  0  0  0  0  0  0  0
   -7.6071    0.6392   -1.7967 H   0  0  0  0  0  0  0  0  0  0  0  0
    3.6846   -1.0236   -1.7844 H   0  0  0  0  0  0  0  0  0  0  0  0
    5.8764   -0.4488   -2.1254 H   0  0  0  0  0  0  0  0  0  0  0  0
    6.3769   -1.4114   -0.7422 H   0  0  0  0  0  0  0  0  0  0  0  0
   -9.8011    0.1313    1.2611 H   0  0  0  0  0  0  0  0  0  0  0  0
   -9.2115   -1.1559    0.1980 H   0  0  0  0  0  0  0  0  0  0  0  0
   -9.8387    0.3464   -0.4957 H   0  0  0  0  0  0  0  0  0  0  0  0
   -7.6515   -0.0016    2.4725 H   0  0  0  0  0  0  0  0  0  0  0  0
   -6.8806   -1.1518    1.3816 H   0  0  0  0  0  0  0  0  0  0  0  0
   -6.1181    0.4175    1.7359 H   0  0  0  0  0  0  0  0  0  0  0  0
   -6.9670    2.5204    0.7338 H   0  0  0  0  0  0  0  0  0  0  0  0
   -8.5307    2.2713    1.5105 H   0  0  0  0  0  0  0  0  0  0  0  0
   -8.4490    2.5487   -0.2350 H   0  0  0  0  0  0  0  0  0  0  0  0
    6.8197   -0.3848    1.3494 H   0  0  0  0  0  0  0  0  0  0  0  0
    4.8362    3.8864   -0.2022 H   0  0  0  0  0  0  0  0  0  0  0  0
    6.9705    1.6569    2.7260 H   0  0  0  0  0  0  0  0  0  0  0  0
    5.9689    3.7792    1.9248 H   0  0  0  0  0  0  0  0  0  0  0  0
    3.5076    2.9562   -3.2640 H   0  0  0  0  0  0  0  0  0  0  0  0
    4.7581    3.8506   -2.4098 H   0  0  0  0  0  0  0  0  0  0  0  0
    3.1877    3.4155   -1.5968 H   0  0  0  0  0  0  0  0  0  0  0  0
  1 10  1  0  0  0  0
  1 57  1  0  0  0  0
  2 21  2  0  0  0  0
  3 22  2  0  0  0  0
  4 30  1  0  0  0  0
  4 35  1  0  0  0  0
  5 14  1  0  0  0  0
  5 22  1  0  0  0  0
  5 56  1  0  0  0  0
  6 21  1  0  0  0  0
  6 25  1  0  0  0  0
  6 63  1  0  0  0  0
  7  8  1  0  0  0  0
  7 11  1  0  0  0  0
  7 12  1  0  0  0  0
  7 17  1  0  0  0  0
  8  9  1  0  0  0  0
  8 10  1  0  0  0  0
  8 36  1  0  0  0  0
  9 14  1  0  0  0  0
  9 19  1  0  0  0  0
  9 37  1  0  0  0  0
 10 13  1  0  0  0  0
 10 38  1  0  0  0  0
 11 15  1  0  0  0  0
 11 39  1  0  0  0  0
 11 40  1  0  0  0  0
 12 16  1  0  0  0  0
 12 41  1  0  0  0  0
 12 42  1  0  0  0  0
 13 15  1  0  0  0  0
 13 18  1  0  0  0  0
 13 43  1  0  0  0  0
 14 16  1  0  0  0  0
 14 44  1  0  0  0  0
 15 45  1  0  0  0  0
 15 46  1  0  0  0  0
 16 47  1  0  0  0  0
 16 48  1  0  0  0  0
 17 49  1  0  0  0  0
 17 50  1  0  0  0  0
 17 51  1  0  0  0  0
 18 20  1  0  0  0  0
 18 21  1  0  0  0  0
 18 52  1  0  0  0  0
 19 53  1  0  0  0  0
 19 54  1  0  0  0  0
 19 55  1  0  0  0  0
 20 58  1  0  0  0  0
 20 59  1  0  0  0  0
 20 60  1  0  0  0  0
 22 23  1  0  0  0  0
 23 24  1  0  0  0  0
 23 61  1  0  0  0  0
 23 62  1  0  0  0  0
 24 26  1  0  0  0  0
 24 27  1  0  0  0  0
 24 28  1  0  0  0  0
 25 29  1  0  0  0  0
 25 64  1  0  0  0  0
 25 65  1  0  0  0  0
 26 66  1  0  0  0  0
 26 67  1  0  0  0  0
 26 68  1  0  0  0  0
 27 69  1  0  0  0  0
 27 70  1  0  0  0  0
 27 71  1  0  0  0  0
 28 72  1  0  0  0  0
 28 73  1  0  0  0  0
 28 74  1  0  0  0  0
 29 30  1  0  0  0  0
 29 31  2  0  0  0  0
 30 32  2  0  0  0  0
 31 33  1  0  0  0  0
 31 75  1  0  0  0  0
 32 34  1  0  0  0  0
 32 76  1  0  0  0  0
 33 34  2  0  0  0  0
 33 77  1  0  0  0  0
 34 78  1  0  0  0  0
 35 79  1  0  0  0  0
 35 80  1  0  0  0  0
 35 81  1  0  0  0  0
M  END
> <PUBCHEM_COMPOUND_CID>
45361422

> <PUBCHEM_CONFORMER_RMSD>
1.2

> <PUBCHEM_CONFORMER_DIVERSEORDER>
1
45
71
141
121
100
168
161
55
77
82
189
101
114
139
58
191
179
131
115
62
65
52
49
199
112
133
66
135
123
175
92
188
186
98
59
196
172
178
96
88
126
185
18
116
103
140
113
25
202
197
95
68
118
74
134
46
137
3
94
169
120
36
11
148
144
87
182
153
143
83
164
63
177
124
201
50
41
152
35
99
2
109
187
119
84
204
53
20
105
85
198
128
78
76
102
111
129
106
171
181
61
43
130
57
81
150
145
86
190
75
79
67
158
149
31
91
33
160
147
39
117
17
90
104
19
183
166
73
200
125
42
80
6
170
54
203
47
12
132
9
157
93
156
151
162
146
24
72
21
167
142
37
10
97
174
60
30
22
176
194
127
163
38
70
34
205
122
107
110
15
44
28
155
40
154
5
192
193
108
180
7
23
48
195
64
26
89
51
14
136
13
4
27
32
29
69
8
206
138
184
173
159
165
16
56

> <PUBCHEM_MMFF94_PARTIAL_CHARGES>
27
1 -0.68
10 0.28
14 0.3
18 0.06
2 -0.57
21 0.57
22 0.57
23 0.06
25 0.44
29 -0.14
3 -0.57
30 0.08
31 -0.15
32 -0.15
33 -0.15
34 -0.15
35 0.28
4 -0.36
5 -0.73
56 0.37
57 0.4
6 -0.73
63 0.37
75 0.15
76 0.15
77 0.15
78 0.15

> <PUBCHEM_EFFECTIVE_ROTOR_COUNT>
11.6

> <PUBCHEM_PHARMACOPHORE_FEATURES>
12
1 1 acceptor
1 1 donor
1 2 acceptor
1 20 hydrophobe
1 3 acceptor
1 4 acceptor
1 5 donor
1 6 donor
4 24 26 27 28 hydrophobe
6 29 30 31 32 33 34 rings
6 7 8 10 11 13 15 rings
6 7 8 9 12 14 16 rings

> <PUBCHEM_HEAVY_ATOM_COUNT>
35

> <PUBCHEM_ATOM_DEF_STEREO_COUNT>
6

> <PUBCHEM_ATOM_UDEF_STEREO_COUNT>
1

> <PUBCHEM_BOND_DEF_STEREO_COUNT>
0

> <PUBCHEM_BOND_UDEF_STEREO_COUNT>
0

> <PUBCHEM_ISOTOPIC_ATOM_COUNT>
0

> <PUBCHEM_COMPONENT_COUNT>
1

> <PUBCHEM_CACTVS_TAUTO_COUNT>
4

> <PUBCHEM_CONFORMER_ID>
02B4290E00000001

> <PUBCHEM_MMFF94_ENERGY>
109.2961

> <PUBCHEM_FEATURE_SELFOVERLAP>
60.911

> <PUBCHEM_SHAPE_FINGERPRINT>
10673678 19 18344148081102474982
10906281 52 17561090181321261727
10928967 22 9799149413535325996
11007060 377 18410018728449906331
11135609 187 18058164123756138832
11181472 205 10159696923955796179
11211813 74 18343016675749503561
11456790 92 17604134949130888352
13150687 139 17989495134829922390
13617811 41 18271801345555980296
14251757 52 18343300362306641913
14461889 52 17531254958749409435
14849402 71 18131912681158002921
15183329 4 17918279770113246305
15840311 113 18342460330806274646
16728300 4 11314567845007482880
17686467 74 18333733529894763917
19319366 153 18341324518226663246
20157964 124 18408885122923282486
20511986 3 18201424918271731876
20715895 44 18410287056478982092
21521721 280 18412827967426169307
23522609 53 17489042482771628169
23569914 2 17173722334281401853
3044373 193 17676491640005646480
34797466 226 17917996048810280134
3552219 110 17560810927095604705
3711267 37 17703517597816329769
397830 11 17749965448355042635
4093350 32 18410291384977958394
4098825 35 18336547115150960825
4112364 45 18260831552621279092
4149490 64 18333729104697179346
4340502 62 17603866680551190218
439807 62 12895081700001829628
44317340 157 18412546509333837590
474 4 18334581265748997318
5109719 28 17968103039998463697
5265222 85 17988920085790195071
5372103 7 15050587488423298938
6328613 192 17988924479325252931

> <PUBCHEM_SHAPE_MULTIPOLES>
686.84
22.99
3.39
1.85
34.25
0.53
-0.15
-14.53
1.26
-6.06
-0.42
-0.82
-0.51
-0.43

> <PUBCHEM_SHAPE_SELFOVERLAP>
1418.048

> <PUBCHEM_SHAPE_VOLUME>
391.2

> <PUBCHEM_COORDINATE_TYPE>
2
5
10

$$$$
