51136625
  -OEChem-12032416143D

 69 72  0     1  0  0  0  0  0999 V2000
   -6.9982   -1.8413   -1.3854 O   0  0  0  0  0  0  0  0  0  0  0  0
   -1.0547    3.7451   -0.4418 O   0  0  0  0  0  0  0  0  0  0  0  0
   -7.1174    0.1487   -0.2870 O   0  0  0  0  0  0  0  0  0  0  0  0
    2.3434   -1.3542   -2.9308 O   0  0  0  0  0  0  0  0  0  0  0  0
    4.3500   -2.0965   -1.1621 O   0  0  0  0  0  0  0  0  0  0  0  0
    4.7598    1.1660    1.3630 O   0  0  0  0  0  0  0  0  0  0  0  0
   -2.2540    2.1111    0.6693 N   0  0  0  0  0  0  0  0  0  0  0  0
   -1.3159   -2.1920    1.8180 N   0  0  0  0  0  0  0  0  0  0  0  0
    0.0847    2.2654    0.9344 N   0  0  0  0  0  0  0  0  0  0  0  0
   -2.9901   -0.2454    0.8956 C   0  0  2  0  0  0  0  0  0  0  0  0
   -4.3357    0.1490    0.2308 C   0  0  1  0  0  0  0  0  0  0  0  0
   -4.1880    1.3915   -0.6664 C   0  0  0  0  0  0  0  0  0  0  0  0
   -2.3865    0.9809    1.6008 C   0  0  0  0  0  0  0  0  0  0  0  0
   -3.5212    2.5461    0.0801 C   0  0  0  0  0  0  0  0  0  0  0  0
   -1.9730   -0.8626   -0.0712 C   0  0  0  0  0  0  0  0  0  0  0  0
   -4.9826   -1.0000   -0.5419 C   0  0  0  0  0  0  0  0  0  0  0  0
   -0.9473   -1.6568    0.7010 C   0  0  0  0  0  0  0  0  0  0  0  0
   -1.0616    2.7885    0.3372 C   0  0  0  0  0  0  0  0  0  0  0  0
    0.4264   -1.7784    0.1497 C   0  0  0  0  0  0  0  0  0  0  0  0
   -6.4643   -0.7978   -0.6998 C   0  0  0  0  0  0  0  0  0  0  0  0
    1.4321   -2.1709    1.0421 C   0  0  0  0  0  0  0  0  0  0  0  0
    1.0657   -2.4241    2.4743 C   0  0  0  0  0  0  0  0  0  0  0  0
   -0.3371   -3.0137    2.5379 C   0  0  0  0  0  0  0  0  0  0  0  0
    0.7309   -1.5065   -1.1854 C   0  0  0  0  0  0  0  0  0  0  0  0
    2.7530   -2.2649    0.5952 C   0  0  0  0  0  0  0  0  0  0  0  0
    2.0503   -1.6184   -1.6262 C   0  0  0  0  0  0  0  0  0  0  0  0
    3.0591   -1.9936   -0.7384 C   0  0  0  0  0  0  0  0  0  0  0  0
    1.4050    2.2800    0.4202 C   0  0  0  0  0  0  0  0  0  0  0  0
    2.4451    1.7082    1.1529 C   0  0  0  0  0  0  0  0  0  0  0  0
    1.6648    2.8669   -0.8183 C   0  0  0  0  0  0  0  0  0  0  0  0
    3.7450    1.7231    0.6471 C   0  0  0  0  0  0  0  0  0  0  0  0
    2.9646    2.8821   -1.3240 C   0  0  0  0  0  0  0  0  0  0  0  0
    1.2574   -0.9770   -3.7746 C   0  0  0  0  0  0  0  0  0  0  0  0
    5.3208   -2.4855   -0.1923 C   0  0  0  0  0  0  0  0  0  0  0  0
    4.0048    2.3100   -0.5915 C   0  0  0  0  0  0  0  0  0  0  0  0
    6.0645    1.2172    0.7877 C   0  0  0  0  0  0  0  0  0  0  0  0
   -3.2628   -0.9676    1.6753 H   0  0  0  0  0  0  0  0  0  0  0  0
   -5.0068    0.4315    1.0558 H   0  0  0  0  0  0  0  0  0  0  0  0
   -3.5828    1.1395   -1.5468 H   0  0  0  0  0  0  0  0  0  0  0  0
   -5.1627    1.7259   -1.0376 H   0  0  0  0  0  0  0  0  0  0  0  0
   -3.0541    1.3137    2.4058 H   0  0  0  0  0  0  0  0  0  0  0  0
   -1.4481    0.7076    2.0813 H   0  0  0  0  0  0  0  0  0  0  0  0
   -1.5027   -0.0850   -0.6787 H   0  0  0  0  0  0  0  0  0  0  0  0
   -2.4493   -1.5751   -0.7522 H   0  0  0  0  0  0  0  0  0  0  0  0
   -3.3721    3.3873   -0.6036 H   0  0  0  0  0  0  0  0  0  0  0  0
   -4.1626    2.8984    0.8964 H   0  0  0  0  0  0  0  0  0  0  0  0
   -4.5412   -1.1033   -1.5393 H   0  0  0  0  0  0  0  0  0  0  0  0
   -4.8462   -1.9387    0.0083 H   0  0  0  0  0  0  0  0  0  0  0  0
    1.7720   -3.1182    2.9433 H   0  0  0  0  0  0  0  0  0  0  0  0
    1.1077   -1.4743    3.0209 H   0  0  0  0  0  0  0  0  0  0  0  0
   -0.3543   -4.0307    2.1262 H   0  0  0  0  0  0  0  0  0  0  0  0
   -0.6475   -3.0884    3.5858 H   0  0  0  0  0  0  0  0  0  0  0  0
   -0.0049    1.8053    1.8327 H   0  0  0  0  0  0  0  0  0  0  0  0
   -0.0820   -1.2358   -1.8465 H   0  0  0  0  0  0  0  0  0  0  0  0
    3.4937   -2.5538    1.3331 H   0  0  0  0  0  0  0  0  0  0  0  0
   -7.9664   -1.7417   -1.5072 H   0  0  0  0  0  0  0  0  0  0  0  0
    2.2499    1.2474    2.1185 H   0  0  0  0  0  0  0  0  0  0  0  0
    0.8991    3.3011   -1.4485 H   0  0  0  0  0  0  0  0  0  0  0  0
    3.1656    3.3328   -2.2918 H   0  0  0  0  0  0  0  0  0  0  0  0
    0.5234   -1.7840   -3.8744 H   0  0  0  0  0  0  0  0  0  0  0  0
    0.8029   -0.0340   -3.4515 H   0  0  0  0  0  0  0  0  0  0  0  0
    1.6721   -0.8019   -4.7728 H   0  0  0  0  0  0  0  0  0  0  0  0
    5.4002   -1.7562    0.6202 H   0  0  0  0  0  0  0  0  0  0  0  0
    5.1354   -3.4999    0.1770 H   0  0  0  0  0  0  0  0  0  0  0  0
    6.2919   -2.5035   -0.6980 H   0  0  0  0  0  0  0  0  0  0  0  0
    4.9895    2.3551   -1.0438 H   0  0  0  0  0  0  0  0  0  0  0  0
    6.7457    0.7205    1.4862 H   0  0  0  0  0  0  0  0  0  0  0  0
    6.4141    2.2494    0.6779 H   0  0  0  0  0  0  0  0  0  0  0  0
    6.1124    0.6619   -0.1551 H   0  0  0  0  0  0  0  0  0  0  0  0
  1 20  1  0  0  0  0
  1 56  1  0  0  0  0
  2 18  2  0  0  0  0
  3 20  2  0  0  0  0
  4 26  1  0  0  0  0
  4 33  1  0  0  0  0
  5 27  1  0  0  0  0
  5 34  1  0  0  0  0
  6 31  1  0  0  0  0
  6 36  1  0  0  0  0
  7 13  1  0  0  0  0
  7 14  1  0  0  0  0
  7 18  1  0  0  0  0
  8 17  2  0  0  0  0
  8 23  1  0  0  0  0
  9 18  1  0  0  0  0
  9 28  1  0  0  0  0
  9 53  1  0  0  0  0
 10 11  1  0  0  0  0
 10 13  1  0  0  0  0
 10 15  1  0  0  0  0
 10 37  1  0  0  0  0
 11 12  1  0  0  0  0
 11 16  1  0  0  0  0
 11 38  1  0  0  0  0
 12 14  1  0  0  0  0
 12 39  1  0  0  0  0
 12 40  1  0  0  0  0
 13 41  1  0  0  0  0
 13 42  1  0  0  0  0
 14 45  1  0  0  0  0
 14 46  1  0  0  0  0
 15 17  1  0  0  0  0
 15 43  1  0  0  0  0
 15 44  1  0  0  0  0
 16 20  1  0  0  0  0
 16 47  1  0  0  0  0
 16 48  1  0  0  0  0
 17 19  1  0  0  0  0
 19 21  1  0  0  0  0
 19 24  2  0  0  0  0
 21 22  1  0  0  0  0
 21 25  2  0  0  0  0
 22 23  1  0  0  0  0
 22 49  1  0  0  0  0
 22 50  1  0  0  0  0
 23 51  1  0  0  0  0
 23 52  1  0  0  0  0
 24 26  1  0  0  0  0
 24 54  1  0  0  0  0
 25 27  1  0  0  0  0
 25 55  1  0  0  0  0
 26 27  2  0  0  0  0
 28 29  2  0  0  0  0
 28 30  1  0  0  0  0
 29 31  1  0  0  0  0
 29 57  1  0  0  0  0
 30 32  2  0  0  0  0
 30 58  1  0  0  0  0
 31 35  2  0  0  0  0
 32 35  1  0  0  0  0
 32 59  1  0  0  0  0
 33 60  1  0  0  0  0
 33 61  1  0  0  0  0
 33 62  1  0  0  0  0
 34 63  1  0  0  0  0
 34 64  1  0  0  0  0
 34 65  1  0  0  0  0
 35 66  1  0  0  0  0
 36 67  1  0  0  0  0
 36 68  1  0  0  0  0
 36 69  1  0  0  0  0
M  END
> <PUBCHEM_COMPOUND_CID>
51136625

> <PUBCHEM_CONFORMER_RMSD>
1.2

> <PUBCHEM_CONFORMER_DIVERSEORDER>
1
41
23
56
17
51
18
58
25
36
16
30
61
13
26
3
62
57
14
2
63
9
37
52
38
28
10
45
24
21
64
60
54
50
59
7
43
15
48
46
39
5
20
6
31
55
12
49
40
47
22
34
32
4
44
8
11
33
19
27
42
29
53
65
35

> <PUBCHEM_MMFF94_PARTIAL_CHARGES>
41
1 -0.65
13 0.3
14 0.3
15 0.06
16 0.06
17 0.3
18 0.69
19 0.09
2 -0.57
20 0.66
21 -0.14
22 0.14
23 0.25
24 -0.15
25 -0.15
26 0.08
27 0.08
28 0.12
29 -0.15
3 -0.57
30 -0.15
31 0.08
32 -0.15
33 0.28
34 0.28
35 -0.15
36 0.28
4 -0.36
5 -0.36
53 0.37
54 0.15
55 0.15
56 0.5
57 0.15
58 0.15
59 0.15
6 -0.36
66 0.15
7 -0.66
8 -0.7
9 -0.55

> <PUBCHEM_EFFECTIVE_ROTOR_COUNT>
11.6

> <PUBCHEM_PHARMACOPHORE_FEATURES>
13
1 1 acceptor
1 2 acceptor
1 3 acceptor
1 4 acceptor
1 5 acceptor
1 6 acceptor
1 8 acceptor
1 9 donor
3 1 3 20 anion
6 19 21 24 25 26 27 rings
6 28 29 30 31 32 35 rings
6 7 10 11 12 13 14 rings
6 8 17 19 21 22 23 rings

> <PUBCHEM_HEAVY_ATOM_COUNT>
36

> <PUBCHEM_ATOM_DEF_STEREO_COUNT>
2

> <PUBCHEM_ATOM_UDEF_STEREO_COUNT>
0

> <PUBCHEM_BOND_DEF_STEREO_COUNT>
0

> <PUBCHEM_BOND_UDEF_STEREO_COUNT>
0

> <PUBCHEM_ISOTOPIC_ATOM_COUNT>
0

> <PUBCHEM_COMPONENT_COUNT>
1

> <PUBCHEM_CACTVS_TAUTO_COUNT>
2

> <PUBCHEM_CONFORMER_ID>
030C487100000001

> <PUBCHEM_MMFF94_ENERGY>
126.364

> <PUBCHEM_FEATURE_SELFOVERLAP>
66.063

> <PUBCHEM_SHAPE_FINGERPRINT>
12107698 1 18341612572918554966
12156800 1 17247560209864525868
12166972 35 17822860770825821567
12422481 6 18198038345729149418
12633257 1 17750219469937506090
12645989 146 18198350546248696406
12838863 1 18337093649201274458
13636023 20 18339343229081252809
15721738 202 17346605157660362067
17909252 39 17846229812436967556
20642791 35 18194685852760744217
20691752 17 18114759143595542009
20721686 56 18410013230343290314
20764821 26 18116736061196844376
20775438 99 18270104846944608791
20905425 154 18342178838776684656
21197605 99 18271239521336735022
22393880 68 18263922134036284725
3298306 158 18265330793157341977
392239 28 18118966893438659024
4093350 32 17775295945812150347
463206 1 18269549623720858617
508706 21 18187937157061692665
513532 50 17560530572699085004
59755656 215 18342175613203303093

> <PUBCHEM_SHAPE_MULTIPOLES>
690.7
12.15
4.46
2.29
14.05
1.61
1.34
-0.72
2.77
-2.75
-0.77
-1.25
-1.66
0.25

> <PUBCHEM_SHAPE_SELFOVERLAP>
1472.293

> <PUBCHEM_SHAPE_VOLUME>
381.1

> <PUBCHEM_COORDINATE_TYPE>
2
5
10

$$$$
