75368640
  -OEChem-12032416403D

 54 57  0     1  0  0  0  0  0999 V2000
    2.5612    3.3093   -0.1708 O   0  0  0  0  0  0  0  0  0  0  0  0
    6.2190   -2.5372    1.4617 O   0  0  0  0  0  0  0  0  0  0  0  0
   -7.0468   -1.9190   -1.0057 O   0  0  0  0  0  0  0  0  0  0  0  0
    0.4198    2.3434   -0.1567 N   0  0  0  0  0  0  0  0  0  0  0  0
   -2.0380    1.4230    0.8547 N   0  0  2  0  0  0  0  0  0  0  0  0
    2.0399    1.3221   -1.3298 N   0  0  0  0  0  0  0  0  0  0  0  0
   -5.0227   -2.0065    0.1261 N   0  0  0  0  0  0  0  0  0  0  0  0
   -0.2525    1.2524   -0.8307 C   0  0  2  0  0  0  0  0  0  0  0  0
   -1.1388    0.4862    0.1508 C   0  0  0  0  0  0  0  0  0  0  0  0
    0.8911    0.4386   -1.4330 C   0  0  0  0  0  0  0  0  0  0  0  0
   -0.3482    3.2380    0.6841 C   0  0  0  0  0  0  0  0  0  0  0  0
   -1.2639    2.4306    1.6076 C   0  0  0  0  0  0  0  0  0  0  0  0
    1.7719    2.4384   -0.5122 C   0  0  0  0  0  0  0  0  0  0  0  0
   -2.9323    0.6926    1.7526 C   0  0  0  0  0  0  0  0  0  0  0  0
    3.3266    0.9750   -1.8915 C   0  0  0  0  0  0  0  0  0  0  0  0
   -4.0522    0.0243    1.0087 C   0  0  0  0  0  0  0  0  0  0  0  0
    4.0954    0.0425   -1.0007 C   0  0  0  0  0  0  0  0  0  0  0  0
   -5.1270    0.7590    0.5204 C   0  0  0  0  0  0  0  0  0  0  0  0
    4.1966   -1.3095   -1.3288 C   0  0  0  0  0  0  0  0  0  0  0  0
    4.7079    0.5274    0.1549 C   0  0  0  0  0  0  0  0  0  0  0  0
   -4.0474   -1.3435    0.7872 C   0  0  0  0  0  0  0  0  0  0  0  0
    4.9106   -2.1764   -0.5015 C   0  0  0  0  0  0  0  0  0  0  0  0
    5.4218   -0.3393    0.9822 C   0  0  0  0  0  0  0  0  0  0  0  0
   -6.1498    0.1124   -0.1648 C   0  0  0  0  0  0  0  0  0  0  0  0
    5.5231   -1.6913    0.6540 C   0  0  0  0  0  0  0  0  0  0  0  0
   -6.0513   -1.2593   -0.3339 C   0  0  0  0  0  0  0  0  0  0  0  0
    6.2824   -3.9068    1.0664 C   0  0  0  0  0  0  0  0  0  0  0  0
   -6.8965   -3.3263   -1.1514 C   0  0  0  0  0  0  0  0  0  0  0  0
   -0.8602    1.6957   -1.6306 H   0  0  0  0  0  0  0  0  0  0  0  0
   -0.5197   -0.0600    0.8756 H   0  0  0  0  0  0  0  0  0  0  0  0
   -1.7060   -0.2549   -0.4225 H   0  0  0  0  0  0  0  0  0  0  0  0
    1.1018   -0.4743   -0.8666 H   0  0  0  0  0  0  0  0  0  0  0  0
    0.7059    0.1845   -2.4809 H   0  0  0  0  0  0  0  0  0  0  0  0
   -0.9391    3.8802    0.0209 H   0  0  0  0  0  0  0  0  0  0  0  0
    0.3312    3.8762    1.2577 H   0  0  0  0  0  0  0  0  0  0  0  0
   -0.6590    1.9393    2.3816 H   0  0  0  0  0  0  0  0  0  0  0  0
   -1.9409    3.1297    2.1130 H   0  0  0  0  0  0  0  0  0  0  0  0
   -3.4032    1.3839    2.4658 H   0  0  0  0  0  0  0  0  0  0  0  0
   -2.3847   -0.0305    2.3726 H   0  0  0  0  0  0  0  0  0  0  0  0
    3.9087    1.8946   -2.0277 H   0  0  0  0  0  0  0  0  0  0  0  0
    3.1684    0.5475   -2.8881 H   0  0  0  0  0  0  0  0  0  0  0  0
   -5.1782    1.8343    0.6677 H   0  0  0  0  0  0  0  0  0  0  0  0
    3.7218   -1.6997   -2.2251 H   0  0  0  0  0  0  0  0  0  0  0  0
    4.6438    1.5785    0.4211 H   0  0  0  0  0  0  0  0  0  0  0  0
   -3.2366   -1.9715    1.1431 H   0  0  0  0  0  0  0  0  0  0  0  0
    4.9486   -3.2139   -0.8154 H   0  0  0  0  0  0  0  0  0  0  0  0
    5.8978    0.0445    1.8805 H   0  0  0  0  0  0  0  0  0  0  0  0
   -6.9949    0.6710   -0.5519 H   0  0  0  0  0  0  0  0  0  0  0  0
    6.8741   -4.4341    1.8219 H   0  0  0  0  0  0  0  0  0  0  0  0
    6.8046   -4.0262    0.1110 H   0  0  0  0  0  0  0  0  0  0  0  0
    5.2897   -4.3695    1.0578 H   0  0  0  0  0  0  0  0  0  0  0  0
   -7.7631   -3.7018   -1.7038 H   0  0  0  0  0  0  0  0  0  0  0  0
   -6.8780   -3.8226   -0.1753 H   0  0  0  0  0  0  0  0  0  0  0  0
   -5.9980   -3.5677   -1.7292 H   0  0  0  0  0  0  0  0  0  0  0  0
  1 13  2  0  0  0  0
  2 25  1  0  0  0  0
  2 27  1  0  0  0  0
  3 26  1  0  0  0  0
  3 28  1  0  0  0  0
  4  8  1  0  0  0  0
  4 11  1  0  0  0  0
  4 13  1  0  0  0  0
  5  9  1  0  0  0  0
  5 12  1  0  0  0  0
  5 14  1  0  0  0  0
  6 10  1  0  0  0  0
  6 13  1  0  0  0  0
  6 15  1  0  0  0  0
  7 21  1  0  0  0  0
  7 26  2  0  0  0  0
  8  9  1  0  0  0  0
  8 10  1  0  0  0  0
  8 29  1  0  0  0  0
  9 30  1  0  0  0  0
  9 31  1  0  0  0  0
 10 32  1  0  0  0  0
 10 33  1  0  0  0  0
 11 12  1  0  0  0  0
 11 34  1  0  0  0  0
 11 35  1  0  0  0  0
 12 36  1  0  0  0  0
 12 37  1  0  0  0  0
 14 16  1  0  0  0  0
 14 38  1  0  0  0  0
 14 39  1  0  0  0  0
 15 17  1  0  0  0  0
 15 40  1  0  0  0  0
 15 41  1  0  0  0  0
 16 18  1  0  0  0  0
 16 21  2  0  0  0  0
 17 19  2  0  0  0  0
 17 20  1  0  0  0  0
 18 24  2  0  0  0  0
 18 42  1  0  0  0  0
 19 22  1  0  0  0  0
 19 43  1  0  0  0  0
 20 23  2  0  0  0  0
 20 44  1  0  0  0  0
 21 45  1  0  0  0  0
 22 25  2  0  0  0  0
 22 46  1  0  0  0  0
 23 25  1  0  0  0  0
 23 47  1  0  0  0  0
 24 26  1  0  0  0  0
 24 48  1  0  0  0  0
 27 49  1  0  0  0  0
 27 50  1  0  0  0  0
 27 51  1  0  0  0  0
 28 52  1  0  0  0  0
 28 53  1  0  0  0  0
 28 54  1  0  0  0  0
M  END
> <PUBCHEM_COMPOUND_CID>
75368640

> <PUBCHEM_CONFORMER_RMSD>
0.8

> <PUBCHEM_CONFORMER_DIVERSEORDER>
1
74
123
178
204
211
84
202
162
118
96
182
49
191
134
195
76
133
209
203
88
149
94
200
214
190
89
159
91
197
104
198
137
117
172
188
143
102
150
126
156
112
173
205
82
201
56
127
131
29
52
171
155
37
92
119
75
53
144
55
130
43
145
121
70
86
106
66
166
199
113
48
180
90
111
129
167
114
80
120
181
136
71
125
109
11
107
153
51
103
45
147
33
85
194
186
207
176
210
99
47
7
170
122
165
16
115
146
105
42
160
138
95
108
169
152
97
139
62
110
31
58
67
184
157
79
148
192
10
116
60
98
81
61
64
135
59
19
196
183
50
164
175
35
14
28
132
87
208
151
2
179
44
177
93
193
69
185
189
21
63
100
38
39
212
141
73
77
17
68
12
34
23
161
72
187
83
124
18
20
65
154
163
27
140
36
25
13
174
40
6
22
168
32
158
78
54
41
4
24
101
57
128
206
8
213
142
9
30
15
46
26
5
3

> <PUBCHEM_MMFF94_PARTIAL_CHARGES>
35
1 -0.57
10 0.3
11 0.3
12 0.27
13 0.69
14 0.41
15 0.44
16 -0.14
17 -0.14
18 -0.15
19 -0.15
2 -0.36
20 -0.15
21 0.16
22 -0.15
23 -0.15
24 -0.15
25 0.08
26 0.39
27 0.28
28 0.28
3 -0.36
4 -0.66
42 0.15
43 0.15
44 0.15
45 0.15
46 0.15
47 0.15
48 0.15
5 -0.81
6 -0.66
7 -0.62
8 0.3
9 0.27

> <PUBCHEM_EFFECTIVE_ROTOR_COUNT>
7.2

> <PUBCHEM_PHARMACOPHORE_FEATURES>
7
1 1 acceptor
1 2 acceptor
1 5 cation
5 4 6 8 10 13 rings
6 17 19 20 22 23 25 rings
6 4 5 8 9 11 12 rings
6 7 16 18 21 24 26 rings

> <PUBCHEM_HEAVY_ATOM_COUNT>
28

> <PUBCHEM_ATOM_DEF_STEREO_COUNT>
1

> <PUBCHEM_ATOM_UDEF_STEREO_COUNT>
0

> <PUBCHEM_BOND_DEF_STEREO_COUNT>
0

> <PUBCHEM_BOND_UDEF_STEREO_COUNT>
0

> <PUBCHEM_ISOTOPIC_ATOM_COUNT>
0

> <PUBCHEM_COMPONENT_COUNT>
1

> <PUBCHEM_CACTVS_TAUTO_COUNT>
1

> <PUBCHEM_CONFORMER_ID>
047E08C000000001

> <PUBCHEM_MMFF94_ENERGY>
83.9792

> <PUBCHEM_FEATURE_SELFOVERLAP>
35.618

> <PUBCHEM_SHAPE_FINGERPRINT>
10622 236 18335988601006920307
10721379 63 8285937782639077784
11399510 152 17559094503429515778
11475781 23 13768211627286160294
11796584 16 16878230852253869072
11963148 33 17624124302288812991
1200032 147 11743830388154500982
12390115 104 11746937599255985977
13533116 47 18334861623654442080
13782708 43 18260548970117758799
13828863 39 10592039150829451801
13885169 86 10951753197271631586
13911852 28 18262519191643175610
14068700 675 18411136905050878601
14150023 79 17838899591669618416
14347332 77 18342462577944744437
14848178 5 18187089442529275992
14849402 71 10879730753710518212
15183329 4 16008748009164520013
15188451 53 18339077095215812698
15475509 8 15430038717027770989
16120349 67 10737289013118963126
16126227 98 10015277153725488586
17857418 61 18409455790563825541
18222031 100 18271260356128636476
19315092 285 18272367538899845354
19438510 23 11743253110084769814
20028762 73 18342178839004084046
20567600 234 16343701079481642552
20691028 202 7925645379847477199
21458453 9 15553866923070074123
21585480 29 15410602727414123951
21585483 132 18261660541550407403
23559900 14 17604158128679176085
23569943 247 18334014974369458683
2838139 119 11599720632927126208
3014063 24 18334573512826801394
3504750 166 18268432317722043009
376196 1 14350052444514029044
3886686 26 17191234028743914754
397830 11 11527955595124294941
437795 70 15140960617068490526
439807 62 18198627825769858815
474113 269 18341040827373284695
5085150 59 17989489607101770607
5104073 3 17845388772611367921
531348 171 18333449825418550813
5874358 3 18200855349764074007
59682541 52 18040714822614738333
7970288 3 18116716219102162178
96874 4 18409162195105587794

> <PUBCHEM_SHAPE_MULTIPOLES>
538.69
18.98
4.07
1.58
10.31
1.08
-0.04
22.85
0.72
-1.78
0.52
-0.76
0.06
-3.88

> <PUBCHEM_SHAPE_SELFOVERLAP>
1150.764

> <PUBCHEM_SHAPE_VOLUME>
300.1

> <PUBCHEM_COORDINATE_TYPE>
2
5
10

$$$$
