26745476
  -OEChem-12032416183D

 51 54  0     1  0  0  0  0  0999 V2000
   -6.3436    2.0373   -0.7978 Cl  0  0  0  0  0  0  0  0  0  0  0  0
    2.1146   -2.2994    0.0591 S   0  0  0  0  0  0  0  0  0  0  0  0
    2.5445   -2.4034    1.4367 O   0  0  0  0  0  0  0  0  0  0  0  0
    2.8147   -2.9995   -0.9960 O   0  0  0  0  0  0  0  0  0  0  0  0
    5.3401    0.7851   -0.2550 O   0  0  0  0  0  0  0  0  0  0  0  0
    3.9391   -0.0200    1.3959 O   0  0  0  0  0  0  0  0  0  0  0  0
    1.9870   -0.6437   -0.3625 N   0  0  2  0  0  0  0  0  0  0  0  0
    0.2481    2.5781    0.4033 N   0  0  0  0  0  0  0  0  0  0  0  0
    1.5532    3.4045   -1.2108 N   0  0  0  0  0  0  0  0  0  0  0  0
   -4.7681   -4.1935   -0.2352 N   0  0  0  0  0  0  0  0  0  0  0  0
    3.2324    0.0126   -0.9023 C   0  0  1  0  0  0  0  0  0  0  0  0
    1.1366    0.1934    0.5615 C   0  0  0  0  0  0  0  0  0  0  0  0
    2.9107    1.3154   -1.6663 C   0  0  0  0  0  0  0  0  0  0  0  0
    1.0758    1.5652    0.0217 C   0  0  0  0  0  0  0  0  0  0  0  0
    1.8687    2.0975   -0.9649 C   0  0  0  0  0  0  0  0  0  0  0  0
    4.1849    0.2446    0.2269 C   0  0  0  0  0  0  0  0  0  0  0  0
   -0.7714    2.5358    1.4232 C   0  0  0  0  0  0  0  0  0  0  0  0
    0.5733    3.6652   -0.3686 C   0  0  0  0  0  0  0  0  0  0  0  0
    0.4141   -2.7672   -0.0135 C   0  0  0  0  0  0  0  0  0  0  0  0
   -2.1681    2.4105    0.8674 C   0  0  0  0  0  0  0  0  0  0  0  0
   -0.2773   -3.0684    1.1600 C   0  0  0  0  0  0  0  0  0  0  0  0
   -0.2383   -2.8355   -1.2446 C   0  0  0  0  0  0  0  0  0  0  0  0
   -2.8096    3.5290    0.3353 C   0  0  0  0  0  0  0  0  0  0  0  0
   -2.8183    1.1765    0.8853 C   0  0  0  0  0  0  0  0  0  0  0  0
   -1.6210   -3.4379    1.1023 C   0  0  0  0  0  0  0  0  0  0  0  0
   -1.5820   -3.2050   -1.3021 C   0  0  0  0  0  0  0  0  0  0  0  0
   -2.2735   -3.5060   -0.1287 C   0  0  0  0  0  0  0  0  0  0  0  0
    6.3462    1.0595    0.7251 C   0  0  0  0  0  0  0  0  0  0  0  0
   -4.1011    3.4137   -0.1787 C   0  0  0  0  0  0  0  0  0  0  0  0
   -4.1099    1.0611    0.3715 C   0  0  0  0  0  0  0  0  0  0  0  0
   -4.7513    2.1797   -0.1606 C   0  0  0  0  0  0  0  0  0  0  0  0
   -3.6502   -3.8854   -0.1875 C   0  0  0  0  0  0  0  0  0  0  0  0
    3.7168   -0.6779   -1.6032 H   0  0  0  0  0  0  0  0  0  0  0  0
    1.5345    0.1930    1.5794 H   0  0  0  0  0  0  0  0  0  0  0  0
    0.1218   -0.2119    0.5840 H   0  0  0  0  0  0  0  0  0  0  0  0
    2.5188    1.0529   -2.6572 H   0  0  0  0  0  0  0  0  0  0  0  0
    3.8014    1.9318   -1.8263 H   0  0  0  0  0  0  0  0  0  0  0  0
   -0.6856    3.4565    2.0143 H   0  0  0  0  0  0  0  0  0  0  0  0
   -0.5472    1.7137    2.1124 H   0  0  0  0  0  0  0  0  0  0  0  0
    0.0737    4.6192   -0.2697 H   0  0  0  0  0  0  0  0  0  0  0  0
    0.2053   -3.0203    2.1316 H   0  0  0  0  0  0  0  0  0  0  0  0
    0.2863   -2.6006   -2.1667 H   0  0  0  0  0  0  0  0  0  0  0  0
   -2.3217    4.4995    0.3231 H   0  0  0  0  0  0  0  0  0  0  0  0
   -2.3302    0.2966    1.2958 H   0  0  0  0  0  0  0  0  0  0  0  0
   -2.1470   -3.6688    2.0257 H   0  0  0  0  0  0  0  0  0  0  0  0
   -2.0770   -3.2527   -2.2691 H   0  0  0  0  0  0  0  0  0  0  0  0
    7.2130    1.4850    0.2127 H   0  0  0  0  0  0  0  0  0  0  0  0
    6.6515    0.1345    1.2235 H   0  0  0  0  0  0  0  0  0  0  0  0
    5.9762    1.7875    1.4533 H   0  0  0  0  0  0  0  0  0  0  0  0
   -4.5894    4.2941   -0.5885 H   0  0  0  0  0  0  0  0  0  0  0  0
   -4.6035    0.0928    0.3911 H   0  0  0  0  0  0  0  0  0  0  0  0
  1 31  1  0  0  0  0
  2  3  2  0  0  0  0
  2  4  2  0  0  0  0
  2  7  1  0  0  0  0
  2 19  1  0  0  0  0
  5 16  1  0  0  0  0
  5 28  1  0  0  0  0
  6 16  2  0  0  0  0
  7 11  1  0  0  0  0
  7 12  1  0  0  0  0
  8 14  1  0  0  0  0
  8 17  1  0  0  0  0
  8 18  1  0  0  0  0
  9 15  1  0  0  0  0
  9 18  2  0  0  0  0
 10 32  3  0  0  0  0
 11 13  1  0  0  0  0
 11 16  1  0  0  0  0
 11 33  1  0  0  0  0
 12 14  1  0  0  0  0
 12 34  1  0  0  0  0
 12 35  1  0  0  0  0
 13 15  1  0  0  0  0
 13 36  1  0  0  0  0
 13 37  1  0  0  0  0
 14 15  2  0  0  0  0
 17 20  1  0  0  0  0
 17 38  1  0  0  0  0
 17 39  1  0  0  0  0
 18 40  1  0  0  0  0
 19 21  2  0  0  0  0
 19 22  1  0  0  0  0
 20 23  2  0  0  0  0
 20 24  1  0  0  0  0
 21 25  1  0  0  0  0
 21 41  1  0  0  0  0
 22 26  2  0  0  0  0
 22 42  1  0  0  0  0
 23 29  1  0  0  0  0
 23 43  1  0  0  0  0
 24 30  2  0  0  0  0
 24 44  1  0  0  0  0
 25 27  2  0  0  0  0
 25 45  1  0  0  0  0
 26 27  1  0  0  0  0
 26 46  1  0  0  0  0
 27 32  1  0  0  0  0
 28 47  1  0  0  0  0
 28 48  1  0  0  0  0
 28 49  1  0  0  0  0
 29 31  2  0  0  0  0
 29 50  1  0  0  0  0
 30 31  1  0  0  0  0
 30 51  1  0  0  0  0
M  END
> <PUBCHEM_COMPOUND_CID>
26745476

> <PUBCHEM_CONFORMER_RMSD>
1

> <PUBCHEM_CONFORMER_DIVERSEORDER>
1
55
18
61
38
17
52
2
73
13
7
49
64
26
22
75
31
27
20
63
9
40
62
47
10
4
8
39
30
15
41
28
69
59
56
3
32
72
46
16
67
54
58
25
66
24
5
36
34
50
74
6
76
42
14
48
37
65
21
57
53
12
35
71
23
45
33
11
70
51
19
43
60
68
29
44

> <PUBCHEM_MMFF94_PARTIAL_CHARGES>
41
1 -0.18
10 -0.56
11 0.42
12 0.54
13 0.18
14 -0.33
15 0.05
16 0.66
17 0.4
18 0.04
19 -0.01
2 1.45
20 -0.14
21 -0.15
22 -0.15
23 -0.15
24 -0.15
25 -0.15
26 -0.15
27 0.07
28 0.28
29 -0.15
3 -0.65
30 -0.15
31 0.18
32 0.48
4 -0.65
40 0.15
41 0.15
42 0.15
43 0.15
44 0.15
45 0.15
46 0.15
5 -0.43
50 0.15
51 0.15
6 -0.57
7 -0.85
8 0.05
9 -0.57

> <PUBCHEM_EFFECTIVE_ROTOR_COUNT>
6.8

> <PUBCHEM_PHARMACOPHORE_FEATURES>
9
1 10 acceptor
1 3 acceptor
1 4 acceptor
1 6 acceptor
3 8 9 18 cation
5 8 9 14 15 18 rings
6 19 21 22 25 26 27 rings
6 20 23 24 29 30 31 rings
6 7 11 12 13 14 15 rings

> <PUBCHEM_HEAVY_ATOM_COUNT>
32

> <PUBCHEM_ATOM_DEF_STEREO_COUNT>
1

> <PUBCHEM_ATOM_UDEF_STEREO_COUNT>
0

> <PUBCHEM_BOND_DEF_STEREO_COUNT>
0

> <PUBCHEM_BOND_UDEF_STEREO_COUNT>
0

> <PUBCHEM_ISOTOPIC_ATOM_COUNT>
0

> <PUBCHEM_COMPONENT_COUNT>
1

> <PUBCHEM_CACTVS_TAUTO_COUNT>
1

> <PUBCHEM_CONFORMER_ID>
01981A8400000001

> <PUBCHEM_MMFF94_ENERGY>
64.7443

> <PUBCHEM_FEATURE_SELFOVERLAP>
45.798

> <PUBCHEM_SHAPE_FINGERPRINT>
10074138 170 18193248937160032368
10190206 1 17469629741658659732
10675989 125 17687746455612629993
1100329 8 18410857706454567160
11135609 187 18266736884226118737
11513181 2 18130787794109386847
12156800 1 18124846144941366002
12788726 201 18049457129676992006
12978246 48 18409455778153632041
13122387 1 18339367465238598351
13140716 1 18122913289351640640
1361 2 18265614269852543593
14117953 113 17761489197581108143
14725015 67 18196084676068953611
14863182 85 18120108190471493876
15338160 23 17981856900534987248
15483637 11 18337955701294354335
16114785 44 17342061009906094336
161222 619 17832744221672594987
17138139 8 18058706084299115733
20028762 73 17911230616246869863
20642791 105 18338794627732424130
20764821 26 18122911090797831383
20775438 99 18129373813819352903
21133410 62 18189315898516252415
21133410 90 17130991022396385771
21583282 1 17679327190980402670
22113638 7 18265330604183854219
23516275 137 16629698249423898493
23559900 14 17474102103766995168
3052486 1 18338513153235670514
4066623 53 17909254017021487775
463206 1 18270956848470649005
5171179 24 17557129911993897392
66674814 147 18193542377752092181

> <PUBCHEM_SHAPE_MULTIPOLES>
620.86
10.45
6.91
1.29
1.22
4.89
-0.03
-5.4
-0.35
6.88
-0.48
-0.49
0.1
-0.58

> <PUBCHEM_SHAPE_SELFOVERLAP>
1327.344

> <PUBCHEM_SHAPE_VOLUME>
344.6

> <PUBCHEM_COORDINATE_TYPE>
2
5
10

$$$$
