51136846
  -OEChem-12032416223D

 65 69  0     1  0  0  0  0  0999 V2000
   -1.7850    2.5842   -1.7759 O   0  0  0  0  0  0  0  0  0  0  0  0
   -4.1271   -4.9353    0.6853 O   0  0  0  0  0  0  0  0  0  0  0  0
   -3.9801    1.2099    0.8315 N   0  0  1  0  0  0  0  0  0  0  0  0
   -4.2187   -2.8470   -0.3287 N   0  0  0  0  0  0  0  0  0  0  0  0
   -1.1086    1.5327    0.0825 N   0  0  0  0  0  0  0  0  0  0  0  0
   -0.4218    2.3163   -1.9542 N   0  0  0  0  0  0  0  0  0  0  0  0
    5.0840   -0.0902    0.1440 N   0  0  0  0  0  0  0  0  0  0  0  0
    7.8238   -0.8036    0.5232 N   0  0  0  0  0  0  0  0  0  0  0  0
    3.5243    0.9802   -1.2792 N   0  0  0  0  0  0  0  0  0  0  0  0
   -4.4529   -0.0052    0.1725 C   0  0  0  0  0  0  0  0  0  0  0  0
   -3.5495    2.2565   -0.1169 C   0  0  1  0  0  0  0  0  0  0  0  0
   -5.0109    1.8152    1.6751 C   0  0  0  0  0  0  0  0  0  0  0  0
   -3.7974    3.5827    0.6253 C   0  0  0  0  0  0  0  0  0  0  0  0
   -3.3547   -0.5728   -0.7362 C   0  0  0  0  0  0  0  0  0  0  0  0
   -4.8712   -1.0441    1.2210 C   0  0  0  0  0  0  0  0  0  0  0  0
   -4.4238    3.1840    1.9540 C   0  0  0  0  0  0  0  0  0  0  0  0
   -3.7919   -1.8965   -1.3632 C   0  0  0  0  0  0  0  0  0  0  0  0
   -5.2786   -2.3572    0.5550 C   0  0  0  0  0  0  0  0  0  0  0  0
   -2.1085    2.0906   -0.5519 C   0  0  0  0  0  0  0  0  0  0  0  0
   -3.7263   -4.1420   -0.1704 C   0  0  0  0  0  0  0  0  0  0  0  0
   -0.0954    1.6952   -0.8169 C   0  0  0  0  0  0  0  0  0  0  0  0
   -2.6340   -4.5701   -1.1176 C   0  0  0  0  0  0  0  0  0  0  0  0
    5.9026   -0.5033   -1.0029 C   0  0  0  0  0  0  0  0  0  0  0  0
    5.8246    0.4277    1.2983 C   0  0  0  0  0  0  0  0  0  0  0  0
    7.0364   -1.4254   -0.5486 C   0  0  0  0  0  0  0  0  0  0  0  0
    6.9619   -0.5240    1.6780 C   0  0  0  0  0  0  0  0  0  0  0  0
    1.2333    1.2264   -0.5476 C   0  0  0  0  0  0  0  0  0  0  0  0
    3.7832    0.3611   -0.1055 C   0  0  0  0  0  0  0  0  0  0  0  0
    1.5383    0.5850    0.6479 C   0  0  0  0  0  0  0  0  0  0  0  0
    2.2527    1.3978   -1.4701 C   0  0  0  0  0  0  0  0  0  0  0  0
    8.9362   -1.6700    0.9111 C   0  0  0  0  0  0  0  0  0  0  0  0
    2.8354    0.1412    0.8809 C   0  0  0  0  0  0  0  0  0  0  0  0
   -5.3287    0.2238   -0.4520 H   0  0  0  0  0  0  0  0  0  0  0  0
   -4.1887    2.2555   -1.0114 H   0  0  0  0  0  0  0  0  0  0  0  0
   -5.1663    1.2789    2.6159 H   0  0  0  0  0  0  0  0  0  0  0  0
   -5.9698    1.9139    1.1507 H   0  0  0  0  0  0  0  0  0  0  0  0
   -4.5056    4.1971    0.0558 H   0  0  0  0  0  0  0  0  0  0  0  0
   -2.8909    4.1765    0.7853 H   0  0  0  0  0  0  0  0  0  0  0  0
   -3.1314    0.0892   -1.5767 H   0  0  0  0  0  0  0  0  0  0  0  0
   -2.4356   -0.7508   -0.1641 H   0  0  0  0  0  0  0  0  0  0  0  0
   -4.0401   -1.2352    1.9130 H   0  0  0  0  0  0  0  0  0  0  0  0
   -5.7226   -0.6987    1.8173 H   0  0  0  0  0  0  0  0  0  0  0  0
   -5.1768    3.9037    2.2885 H   0  0  0  0  0  0  0  0  0  0  0  0
   -3.6477    3.1183    2.7266 H   0  0  0  0  0  0  0  0  0  0  0  0
   -4.6489   -1.7393   -2.0293 H   0  0  0  0  0  0  0  0  0  0  0  0
   -2.9793   -2.2939   -1.9740 H   0  0  0  0  0  0  0  0  0  0  0  0
   -5.5208   -3.0997    1.3219 H   0  0  0  0  0  0  0  0  0  0  0  0
   -6.1765   -2.2150   -0.0582 H   0  0  0  0  0  0  0  0  0  0  0  0
   -2.3312   -5.5955   -0.8843 H   0  0  0  0  0  0  0  0  0  0  0  0
   -2.9972   -4.5484   -2.1484 H   0  0  0  0  0  0  0  0  0  0  0  0
   -1.7601   -3.9231   -1.0040 H   0  0  0  0  0  0  0  0  0  0  0  0
    5.2929   -1.0459   -1.7363 H   0  0  0  0  0  0  0  0  0  0  0  0
    6.3135    0.3844   -1.5009 H   0  0  0  0  0  0  0  0  0  0  0  0
    5.1775    0.5534    2.1737 H   0  0  0  0  0  0  0  0  0  0  0  0
    6.2281    1.4183    1.0517 H   0  0  0  0  0  0  0  0  0  0  0  0
    7.6775   -1.6323   -1.4142 H   0  0  0  0  0  0  0  0  0  0  0  0
    6.6179   -2.3849   -0.2154 H   0  0  0  0  0  0  0  0  0  0  0  0
    6.5415   -1.4545    2.0831 H   0  0  0  0  0  0  0  0  0  0  0  0
    7.5478   -0.0552    2.4780 H   0  0  0  0  0  0  0  0  0  0  0  0
    0.7854    0.4145    1.4131 H   0  0  0  0  0  0  0  0  0  0  0  0
    9.5449   -1.1901    1.6855 H   0  0  0  0  0  0  0  0  0  0  0  0
    8.5950   -2.6394    1.2921 H   0  0  0  0  0  0  0  0  0  0  0  0
    9.5993   -1.8491    0.0574 H   0  0  0  0  0  0  0  0  0  0  0  0
    2.0978    1.8878   -2.4268 H   0  0  0  0  0  0  0  0  0  0  0  0
    3.0682   -0.3730    1.8077 H   0  0  0  0  0  0  0  0  0  0  0  0
  1  6  1  0  0  0  0
  1 19  1  0  0  0  0
  2 20  2  0  0  0  0
  3 10  1  0  0  0  0
  3 11  1  0  0  0  0
  3 12  1  0  0  0  0
  4 17  1  0  0  0  0
  4 18  1  0  0  0  0
  4 20  1  0  0  0  0
  5 19  2  0  0  0  0
  5 21  1  0  0  0  0
  6 21  2  0  0  0  0
  7 23  1  0  0  0  0
  7 24  1  0  0  0  0
  7 28  1  0  0  0  0
  8 25  1  0  0  0  0
  8 26  1  0  0  0  0
  8 31  1  0  0  0  0
  9 28  2  0  0  0  0
  9 30  1  0  0  0  0
 10 14  1  0  0  0  0
 10 15  1  0  0  0  0
 10 33  1  0  0  0  0
 11 13  1  0  0  0  0
 11 19  1  0  0  0  0
 11 34  1  0  0  0  0
 12 16  1  0  0  0  0
 12 35  1  0  0  0  0
 12 36  1  0  0  0  0
 13 16  1  0  0  0  0
 13 37  1  0  0  0  0
 13 38  1  0  0  0  0
 14 17  1  0  0  0  0
 14 39  1  0  0  0  0
 14 40  1  0  0  0  0
 15 18  1  0  0  0  0
 15 41  1  0  0  0  0
 15 42  1  0  0  0  0
 16 43  1  0  0  0  0
 16 44  1  0  0  0  0
 17 45  1  0  0  0  0
 17 46  1  0  0  0  0
 18 47  1  0  0  0  0
 18 48  1  0  0  0  0
 20 22  1  0  0  0  0
 21 27  1  0  0  0  0
 22 49  1  0  0  0  0
 22 50  1  0  0  0  0
 22 51  1  0  0  0  0
 23 25  1  0  0  0  0
 23 52  1  0  0  0  0
 23 53  1  0  0  0  0
 24 26  1  0  0  0  0
 24 54  1  0  0  0  0
 24 55  1  0  0  0  0
 25 56  1  0  0  0  0
 25 57  1  0  0  0  0
 26 58  1  0  0  0  0
 26 59  1  0  0  0  0
 27 29  1  0  0  0  0
 27 30  2  0  0  0  0
 28 32  1  0  0  0  0
 29 32  2  0  0  0  0
 29 60  1  0  0  0  0
 30 64  1  0  0  0  0
 31 61  1  0  0  0  0
 31 62  1  0  0  0  0
 31 63  1  0  0  0  0
 32 65  1  0  0  0  0
M  END
> <PUBCHEM_COMPOUND_CID>
51136846

> <PUBCHEM_CONFORMER_RMSD>
1

> <PUBCHEM_CONFORMER_DIVERSEORDER>
1
100
11
25
176
113
135
111
101
115
107
180
147
104
146
168
143
156
84
161
31
159
163
23
44
128
18
59
178
83
20
112
16
154
85
123
87
177
170
75
182
132
93
37
175
89
29
65
166
62
179
167
108
47
153
133
122
124
165
33
52
134
48
45
174
96
88
12
78
145
136
110
172
73
92
4
164
21
36
26
157
55
98
30
155
139
38
130
39
105
51
131
3
81
171
54
102
41
120
119
140
10
8
129
141
173
56
150
57
125
121
114
77
34
74
90
13
183
86
70
50
80
64
43
158
2
72
22
137
103
82
14
19
95
67
97
17
76
117
169
27
127
79
69
116
61
109
118
68
99
94
71
66
7
142
15
40
35
160
138
58
181
144
49
9
151
24
32
162
6
149
184
63
152
53
91
126
5
42
60
106
148
46
28

> <PUBCHEM_MMFF94_PARTIAL_CHARGES>
31
1 -0.02
10 0.27
11 0.45
12 0.27
17 0.3
18 0.3
19 0.3
2 -0.57
20 0.57
21 0.46
22 0.06
23 0.37
24 0.37
25 0.27
26 0.27
27 0.05
28 0.41
29 -0.15
3 -0.81
30 0.16
31 0.27
32 -0.15
4 -0.66
5 -0.57
6 -0.41
60 0.15
64 0.15
65 0.15
7 -0.84
8 -0.81
9 -0.62

> <PUBCHEM_EFFECTIVE_ROTOR_COUNT>
8.4

> <PUBCHEM_PHARMACOPHORE_FEATURES>
10
1 2 acceptor
1 3 cation
1 8 cation
3 5 6 21 cation
3 7 9 28 cation
5 1 5 6 19 21 rings
5 3 11 12 13 16 rings
6 4 10 14 15 17 18 rings
6 7 8 23 24 25 26 rings
6 9 27 28 29 30 32 rings

> <PUBCHEM_HEAVY_ATOM_COUNT>
32

> <PUBCHEM_ATOM_DEF_STEREO_COUNT>
1

> <PUBCHEM_ATOM_UDEF_STEREO_COUNT>
0

> <PUBCHEM_BOND_DEF_STEREO_COUNT>
0

> <PUBCHEM_BOND_UDEF_STEREO_COUNT>
0

> <PUBCHEM_ISOTOPIC_ATOM_COUNT>
0

> <PUBCHEM_COMPONENT_COUNT>
1

> <PUBCHEM_CACTVS_TAUTO_COUNT>
1

> <PUBCHEM_CONFORMER_ID>
030C494E00000001

> <PUBCHEM_MMFF94_ENERGY>
73.5893

> <PUBCHEM_FEATURE_SELFOVERLAP>
50.75

> <PUBCHEM_SHAPE_FINGERPRINT>
10319688 45 18335417963189380677
10319926 262 18131078116792391156
10622 236 18117560854116212127
10815517 723 18187363242489475966
10917259 128 9511188392141866982
11103572 155 18269274574364168622
11135926 11 15936412200483753696
11227150 75 16696366290761129119
11315621 246 18260543407813097334
11801155 225 18263074415210479898
11963148 33 18041832906214755330
12422481 6 18060142054943317014
12522641 68 17101128028197667692
12523318 42 18272937128757096369
12838863 1 18200304559337860423
13009979 54 18265339589434863533
13782708 43 18408595964645751144
14150023 24 18124882249064832929
14279260 333 17967247590230473874
14344974 204 18342455984886063942
14705955 166 17203343174076645281
14844126 61 18411984680920431089
14856354 85 18272090474459590396
15021287 119 17748835098482565532
15183329 4 17167864158514726474
15320294 125 18333456439309659407
15326921 28 17977943480147384313
15326923 133 17986122811744765974
15348495 7 18131909360821326208
15352257 5 18341894035875598326
15439362 3 17689438188293339477
16989713 51 18187078438970802502
17324776 126 17626365067841788766
17780758 139 18342457032620044257
17913733 40 16343989091820461078
18603816 31 18334575715875661634
18927931 339 17168151083151353065
19246450 95 18338815425124744993
19611394 137 17846495942123667312
208703 8 18116149051137558291
21033648 29 16343437111235300429
21133410 221 17769109951181354223
21814621 53 17775280522610971210
23522609 53 17898605058044844548
23523787 8 17683760456164695103
23569914 152 11533801603801904184
2838139 119 9943519731052276838
312425 54 18201158746205526104
3383291 50 18342182176863085531
3504750 166 18410570682406048764
397830 11 18271795866137364584
4073 2 18202281373595111430
4144715 1 18273496775954832208
4169191 19 13182722759564305400
44880568 143 7853564747810948802
45377200 153 18411144602957053974
4616759 239 17988914523469586610
484985 159 18334004000495284895
5080951 261 18335686231014503341
5104073 3 18271806852278890896
5364581 5 17916858136012455296
6009941 240 17917711241213416776
6058803 2 18046369653919798469
6691757 9 18342462487750957785
68570916 9 18409731786027774060
9896288 288 18339653235573041345
9953998 17 18342736286914059888

> <PUBCHEM_SHAPE_MULTIPOLES>
611.94
20.38
5.07
1.64
47.23
5.78
0.03
10.43
-8.43
-12.52
0.15
-0.03
-0.73
-1.84

> <PUBCHEM_SHAPE_SELFOVERLAP>
1302.784

> <PUBCHEM_SHAPE_VOLUME>
340.4

> <PUBCHEM_COORDINATE_TYPE>
2
5
10

$$$$
