25314512
  -OEChem-12032416383D

 63 67  0     1  0  0  0  0  0999 V2000
    5.9023    5.4263    0.1621 F   0  0  0  0  0  0  0  0  0  0  0  0
    0.5786   -3.5576   -1.4373 O   0  0  0  0  0  0  0  0  0  0  0  0
    0.2643   -5.2082    0.1619 O   0  0  0  0  0  0  0  0  0  0  0  0
    1.0851   -3.5198    2.3474 O   0  0  0  0  0  0  0  0  0  0  0  0
    3.6931   -0.5743    1.2607 O   0  0  0  0  0  0  0  0  0  0  0  0
   -1.1199   -1.7737    0.0389 N   0  0  0  0  0  0  0  0  0  0  0  0
    2.2574   -1.4078   -0.3476 N   0  0  0  0  0  0  0  0  0  0  0  0
    3.1075    0.7031   -0.6196 N   0  0  0  0  0  0  0  0  0  0  0  0
   -0.5098   -2.9655    0.6317 C   0  0  2  0  0  0  0  0  0  0  0  0
    0.8520   -2.6056    1.2678 C   0  0  2  0  0  0  0  0  0  0  0  0
    2.0351   -2.6933    0.2789 C   0  0  1  0  0  0  0  0  0  0  0  0
   -0.3328   -4.0509   -0.4460 C   0  0  1  0  0  0  0  0  0  0  0  0
    1.8429   -3.7755   -0.8035 C   0  0  1  0  0  0  0  0  0  0  0  0
   -1.7500   -0.9480    1.0778 C   0  0  0  0  0  0  0  0  0  0  0  0
   -2.0898   -2.1539   -0.9970 C   0  0  0  0  0  0  0  0  0  0  0  0
   -3.3486    0.0087   -0.6324 C   0  0  0  0  0  0  0  0  0  0  0  0
    1.6385   -5.1743   -0.2530 C   0  0  0  0  0  0  0  0  0  0  0  0
   -2.3464    0.3288    0.4818 C   0  0  0  0  0  0  0  0  0  0  0  0
   -2.6972   -0.9182   -1.6643 C   0  0  0  0  0  0  0  0  0  0  0  0
   -3.8643    1.2857   -1.2899 C   0  0  0  0  0  0  0  0  0  0  0  0
   -4.9228    1.9522   -0.4544 C   0  0  0  0  0  0  0  0  0  0  0  0
    3.0862   -0.4269    0.2026 C   0  0  0  0  0  0  0  0  0  0  0  0
   -6.2658    1.6230   -0.6379 C   0  0  0  0  0  0  0  0  0  0  0  0
   -4.5615    2.8992    0.5038 C   0  0  0  0  0  0  0  0  0  0  0  0
   -7.2476    2.2408    0.1368 C   0  0  0  0  0  0  0  0  0  0  0  0
   -5.5432    3.5171    1.2784 C   0  0  0  0  0  0  0  0  0  0  0  0
    3.8202    1.9084   -0.4202 C   0  0  0  0  0  0  0  0  0  0  0  0
   -6.8863    3.1879    1.0949 C   0  0  0  0  0  0  0  0  0  0  0  0
    3.7210    2.9402   -1.3536 C   0  0  0  0  0  0  0  0  0  0  0  0
    4.6231    2.0651    0.7097 C   0  0  0  0  0  0  0  0  0  0  0  0
    4.4246    4.1285   -1.1573 C   0  0  0  0  0  0  0  0  0  0  0  0
    5.3267    3.2532    0.9061 C   0  0  0  0  0  0  0  0  0  0  0  0
    5.2275    4.2849   -0.0273 C   0  0  0  0  0  0  0  0  0  0  0  0
   -1.1649   -3.3923    1.4051 H   0  0  0  0  0  0  0  0  0  0  0  0
    0.8316   -1.6200    1.7433 H   0  0  0  0  0  0  0  0  0  0  0  0
    2.9487   -2.9428    0.8338 H   0  0  0  0  0  0  0  0  0  0  0  0
   -1.2576   -4.4123   -0.9030 H   0  0  0  0  0  0  0  0  0  0  0  0
    2.6477   -3.7389   -1.5450 H   0  0  0  0  0  0  0  0  0  0  0  0
   -2.5411   -1.5084    1.5940 H   0  0  0  0  0  0  0  0  0  0  0  0
   -1.0264   -0.6433    1.8404 H   0  0  0  0  0  0  0  0  0  0  0  0
   -1.6354   -2.6756   -1.8436 H   0  0  0  0  0  0  0  0  0  0  0  0
   -2.8935   -2.7788   -0.5854 H   0  0  0  0  0  0  0  0  0  0  0  0
   -4.1911   -0.5407   -0.1881 H   0  0  0  0  0  0  0  0  0  0  0  0
    2.2996   -5.4285    0.5797 H   0  0  0  0  0  0  0  0  0  0  0  0
    1.7535   -5.9259   -1.0414 H   0  0  0  0  0  0  0  0  0  0  0  0
   -1.5362    0.9606    0.0944 H   0  0  0  0  0  0  0  0  0  0  0  0
   -2.8295    0.8854    1.2912 H   0  0  0  0  0  0  0  0  0  0  0  0
   -3.4420   -1.2349   -2.4046 H   0  0  0  0  0  0  0  0  0  0  0  0
   -1.9148   -0.3752   -2.2115 H   0  0  0  0  0  0  0  0  0  0  0  0
    1.7267   -1.1817   -1.1833 H   0  0  0  0  0  0  0  0  0  0  0  0
   -4.2985    1.0558   -2.2723 H   0  0  0  0  0  0  0  0  0  0  0  0
   -3.0453    1.9876   -1.4941 H   0  0  0  0  0  0  0  0  0  0  0  0
    1.9118   -3.2534    2.7847 H   0  0  0  0  0  0  0  0  0  0  0  0
   -6.5601    0.8850   -1.3794 H   0  0  0  0  0  0  0  0  0  0  0  0
   -3.5204    3.1728    0.6519 H   0  0  0  0  0  0  0  0  0  0  0  0
    2.5453    0.6626   -1.4660 H   0  0  0  0  0  0  0  0  0  0  0  0
   -8.2932    1.9841   -0.0057 H   0  0  0  0  0  0  0  0  0  0  0  0
   -5.2622    4.2560    2.0231 H   0  0  0  0  0  0  0  0  0  0  0  0
   -7.6506    3.6693    1.6978 H   0  0  0  0  0  0  0  0  0  0  0  0
    3.0990    2.8311   -2.2383 H   0  0  0  0  0  0  0  0  0  0  0  0
    4.7508    1.3134    1.4756 H   0  0  0  0  0  0  0  0  0  0  0  0
    4.3476    4.9322   -1.8837 H   0  0  0  0  0  0  0  0  0  0  0  0
    5.9521    3.3769    1.7854 H   0  0  0  0  0  0  0  0  0  0  0  0
  1 33  1  0  0  0  0
  2 12  1  0  0  0  0
  2 13  1  0  0  0  0
  3 12  1  0  0  0  0
  3 17  1  0  0  0  0
  4 10  1  0  0  0  0
  4 53  1  0  0  0  0
  5 22  2  0  0  0  0
  6  9  1  0  0  0  0
  6 14  1  0  0  0  0
  6 15  1  0  0  0  0
  7 11  1  0  0  0  0
  7 22  1  0  0  0  0
  7 50  1  0  0  0  0
  8 22  1  0  0  0  0
  8 27  1  0  0  0  0
  8 56  1  0  0  0  0
  9 10  1  0  0  0  0
  9 12  1  0  0  0  0
  9 34  1  0  0  0  0
 10 11  1  0  0  0  0
 10 35  1  0  0  0  0
 11 13  1  0  0  0  0
 11 36  1  0  0  0  0
 12 37  1  0  0  0  0
 13 17  1  0  0  0  0
 13 38  1  0  0  0  0
 14 18  1  0  0  0  0
 14 39  1  0  0  0  0
 14 40  1  0  0  0  0
 15 19  1  0  0  0  0
 15 41  1  0  0  0  0
 15 42  1  0  0  0  0
 16 18  1  0  0  0  0
 16 19  1  0  0  0  0
 16 20  1  0  0  0  0
 16 43  1  0  0  0  0
 17 44  1  0  0  0  0
 17 45  1  0  0  0  0
 18 46  1  0  0  0  0
 18 47  1  0  0  0  0
 19 48  1  0  0  0  0
 19 49  1  0  0  0  0
 20 21  1  0  0  0  0
 20 51  1  0  0  0  0
 20 52  1  0  0  0  0
 21 23  2  0  0  0  0
 21 24  1  0  0  0  0
 23 25  1  0  0  0  0
 23 54  1  0  0  0  0
 24 26  2  0  0  0  0
 24 55  1  0  0  0  0
 25 28  2  0  0  0  0
 25 57  1  0  0  0  0
 26 28  1  0  0  0  0
 26 58  1  0  0  0  0
 27 29  2  0  0  0  0
 27 30  1  0  0  0  0
 28 59  1  0  0  0  0
 29 31  1  0  0  0  0
 29 60  1  0  0  0  0
 30 32  2  0  0  0  0
 30 61  1  0  0  0  0
 31 33  2  0  0  0  0
 31 62  1  0  0  0  0
 32 33  1  0  0  0  0
 32 63  1  0  0  0  0
M  END
> <PUBCHEM_COMPOUND_CID>
25314512

> <PUBCHEM_CONFORMER_RMSD>
1

> <PUBCHEM_CONFORMER_DIVERSEORDER>
1
43
49
84
33
22
35
64
53
14
63
56
7
77
54
4
16
57
71
67
73
9
59
19
18
74
37
60
70
41
51
24
61
62
48
82
31
85
58
32
45
29
25
83
65
52
68
20
28
79
47
46
44
81
40
23
75
55
12
11
76
15
13
3
26
10
80
2
69
72
78
34
27
6
5
66
30
42
17
39
50
36
38
8
21

> <PUBCHEM_MMFF94_PARTIAL_CHARGES>
42
1 -0.19
10 0.28
11 0.3
12 0.56
13 0.28
14 0.27
15 0.27
17 0.28
2 -0.56
20 0.14
21 -0.14
22 0.69
23 -0.15
24 -0.15
25 -0.15
26 -0.15
27 0.12
28 -0.15
29 -0.15
3 -0.56
30 -0.15
31 -0.15
32 -0.15
33 0.19
4 -0.68
5 -0.57
50 0.37
53 0.4
54 0.15
55 0.15
56 0.37
57 0.15
58 0.15
59 0.15
6 -0.81
60 0.15
61 0.15
62 0.15
63 0.15
7 -0.73
8 -0.55
9 0.27

> <PUBCHEM_EFFECTIVE_ROTOR_COUNT>
9.4

> <PUBCHEM_PHARMACOPHORE_FEATURES>
12
1 2 acceptor
1 3 acceptor
1 4 acceptor
1 4 donor
1 5 acceptor
1 6 cation
1 7 donor
1 8 donor
6 21 23 24 25 26 28 rings
6 27 29 30 31 32 33 rings
6 6 14 15 16 18 19 rings
8 2 3 9 10 11 12 13 17 rings

> <PUBCHEM_HEAVY_ATOM_COUNT>
33

> <PUBCHEM_ATOM_DEF_STEREO_COUNT>
5

> <PUBCHEM_ATOM_UDEF_STEREO_COUNT>
0

> <PUBCHEM_BOND_DEF_STEREO_COUNT>
0

> <PUBCHEM_BOND_UDEF_STEREO_COUNT>
0

> <PUBCHEM_ISOTOPIC_ATOM_COUNT>
0

> <PUBCHEM_COMPONENT_COUNT>
1

> <PUBCHEM_CACTVS_TAUTO_COUNT>
3

> <PUBCHEM_CONFORMER_ID>
018244D000000001

> <PUBCHEM_MMFF94_ENERGY>
92.4574

> <PUBCHEM_FEATURE_SELFOVERLAP>
60.999

> <PUBCHEM_SHAPE_FINGERPRINT>
10439779 11 18121768693959509080
10483366 6 18195263122398868470
10673678 19 18411421683437779545
10675989 125 18339928112583946032
10917259 69 18338518655912865652
10937287 8 18411419544084974046
11059845 2 18124005053750400696
11374522 174 18262535761258888933
11477941 20 16974488942475277356
11479125 193 18412270532158275481
12107183 9 18189876761073466912
12655387 17 14056994963851797317
12788726 201 17831000695956272178
13590594 115 17401490342688087707
14251764 75 18411420622264709745
14849402 71 18194686968797814487
15081414 286 18049998892119190934
15400415 2 18411136982403579053
15439362 3 18412546531436213788
15513586 35 16376361157884386140
16728433 281 17974581496524654356
16988056 13 18050003286329482534
16992779 147 18196670513977052593
1768 85 18264213517761127045
17899979 129 18340214003045090336
19309040 13 18202002148622550325
19319366 153 18342735196003039301
21033650 10 17611200634542691172
21365058 113 17624145901473688087
21796203 349 17098301292172895778
23522609 53 17703236093059820801
23576562 1 18200315386264702511
376196 1 18335423478122372658
44280116 191 18267038188518572676
4760202 70 18272082817761535709
5047190 92 18411703218586600293
5219985 13 18338237171000229669
53794403 172 18339646633427494143
56633871 153 8862404057794820333
5776283 40 18266479654307152220
5951187 136 18201166446728752948
6034566 193 18338802324678107729
6036956 94 17614003318734501997
6176135 31 18410003325927835088
6201320 215 17619342548111735072
9849439 229 18410012173370040972

> <PUBCHEM_SHAPE_MULTIPOLES>
633.43
15.29
8.84
1.43
18.36
2.11
0.14
-30.34
1.52
-11.88
0.15
0.17
0.26
-1.97

> <PUBCHEM_SHAPE_SELFOVERLAP>
1366.665

> <PUBCHEM_SHAPE_VOLUME>
346.7

> <PUBCHEM_COORDINATE_TYPE>
2
5
10

$$$$
