75536558
  -OEChem-12032416393D

 48 50  0     1  0  0  0  0  0999 V2000
    0.5725   -1.1791   -0.4106 O   0  0  0  0  0  0  0  0  0  0  0  0
   -0.3717    2.0709    0.7941 O   0  0  0  0  0  0  0  0  0  0  0  0
    4.2195    1.3933    0.1309 O   0  0  0  0  0  0  0  0  0  0  0  0
    3.1807   -0.6219    0.6659 N   0  0  0  0  0  0  0  0  0  0  0  0
   -2.7687    0.1379    0.1664 N   0  0  0  0  0  0  0  0  0  0  0  0
   -5.8629    1.0584   -0.6653 N   0  0  0  0  0  0  0  0  0  0  0  0
    0.9036    0.0947    0.1669 C   0  0  1  0  0  0  0  0  0  0  0  0
   -0.3996    0.6589    0.7166 C   0  0  2  0  0  0  0  0  0  0  0  0
    5.3628   -0.6472   -0.3423 C   0  0  0  0  0  0  0  0  0  0  0  0
   -1.3947    0.1480   -0.3087 C   0  0  1  0  0  0  0  0  0  0  0  0
    6.3819   -0.8758    0.7797 C   0  0  0  0  0  0  0  0  0  0  0  0
    6.1067    0.1001   -1.4503 C   0  0  0  0  0  0  0  0  0  0  0  0
    7.7101   -0.3458    0.2500 C   0  0  0  0  0  0  0  0  0  0  0  0
    7.3106    0.7194   -0.7550 C   0  0  0  0  0  0  0  0  0  0  0  0
   -0.8538   -1.2453   -0.5846 C   0  0  0  0  0  0  0  0  0  0  0  0
    1.9747   -0.0855    1.2278 C   0  0  0  0  0  0  0  0  0  0  0  0
    4.2093    0.1655    0.1611 C   0  0  0  0  0  0  0  0  0  0  0  0
   -3.7052   -0.0321   -0.9381 C   0  0  0  0  0  0  0  0  0  0  0  0
   -5.1334   -0.0616   -0.4627 C   0  0  0  0  0  0  0  0  0  0  0  0
   -5.6228   -1.2069    0.1444 C   0  0  0  0  0  0  0  0  0  0  0  0
   -6.9462   -1.2025    0.5710 C   0  0  0  0  0  0  0  0  0  0  0  0
   -7.1449    1.0256   -0.2373 C   0  0  0  0  0  0  0  0  0  0  0  0
   -7.7285   -0.0688    0.3801 C   0  0  0  0  0  0  0  0  0  0  0  0
    1.2911    0.7289   -0.6414 H   0  0  0  0  0  0  0  0  0  0  0  0
   -0.6166    0.2543    1.7131 H   0  0  0  0  0  0  0  0  0  0  0  0
    4.9916   -1.6013   -0.7354 H   0  0  0  0  0  0  0  0  0  0  0  0
   -1.3087    0.7751   -1.2074 H   0  0  0  0  0  0  0  0  0  0  0  0
    6.4638   -1.9376    1.0357 H   0  0  0  0  0  0  0  0  0  0  0  0
    6.1055   -0.3429    1.6976 H   0  0  0  0  0  0  0  0  0  0  0  0
    6.4580   -0.6214   -2.1990 H   0  0  0  0  0  0  0  0  0  0  0  0
    5.5072    0.8485   -1.9779 H   0  0  0  0  0  0  0  0  0  0  0  0
    8.2589   -1.1509   -0.2533 H   0  0  0  0  0  0  0  0  0  0  0  0
    8.3464    0.0494    1.0472 H   0  0  0  0  0  0  0  0  0  0  0  0
    7.0240    1.6431   -0.2392 H   0  0  0  0  0  0  0  0  0  0  0  0
    8.1180    0.9536   -1.4546 H   0  0  0  0  0  0  0  0  0  0  0  0
   -1.2316   -1.9877    0.1279 H   0  0  0  0  0  0  0  0  0  0  0  0
   -1.0792   -1.5935   -1.5971 H   0  0  0  0  0  0  0  0  0  0  0  0
    1.6461   -0.7999    1.9905 H   0  0  0  0  0  0  0  0  0  0  0  0
    2.1980    0.8687    1.7169 H   0  0  0  0  0  0  0  0  0  0  0  0
    3.2771   -1.6330    0.6440 H   0  0  0  0  0  0  0  0  0  0  0  0
   -2.9667    1.0231    0.6338 H   0  0  0  0  0  0  0  0  0  0  0  0
   -0.1800    2.4220   -0.0919 H   0  0  0  0  0  0  0  0  0  0  0  0
   -3.5063   -0.9621   -1.4852 H   0  0  0  0  0  0  0  0  0  0  0  0
   -3.5940    0.7889   -1.6583 H   0  0  0  0  0  0  0  0  0  0  0  0
   -5.0046   -2.0866    0.2880 H   0  0  0  0  0  0  0  0  0  0  0  0
   -7.3672   -2.0807    1.0511 H   0  0  0  0  0  0  0  0  0  0  0  0
   -7.7123    1.9342   -0.4095 H   0  0  0  0  0  0  0  0  0  0  0  0
   -8.7625   -0.0429    0.7045 H   0  0  0  0  0  0  0  0  0  0  0  0
  1  7  1  0  0  0  0
  1 15  1  0  0  0  0
  2  8  1  0  0  0  0
  2 42  1  0  0  0  0
  3 17  2  0  0  0  0
  4 16  1  0  0  0  0
  4 17  1  0  0  0  0
  4 40  1  0  0  0  0
  5 10  1  0  0  0  0
  5 18  1  0  0  0  0
  5 41  1  0  0  0  0
  6 19  1  0  0  0  0
  6 22  2  0  0  0  0
  7  8  1  0  0  0  0
  7 16  1  0  0  0  0
  7 24  1  0  0  0  0
  8 10  1  0  0  0  0
  8 25  1  0  0  0  0
  9 11  1  0  0  0  0
  9 12  1  0  0  0  0
  9 17  1  0  0  0  0
  9 26  1  0  0  0  0
 10 15  1  0  0  0  0
 10 27  1  0  0  0  0
 11 13  1  0  0  0  0
 11 28  1  0  0  0  0
 11 29  1  0  0  0  0
 12 14  1  0  0  0  0
 12 30  1  0  0  0  0
 12 31  1  0  0  0  0
 13 14  1  0  0  0  0
 13 32  1  0  0  0  0
 13 33  1  0  0  0  0
 14 34  1  0  0  0  0
 14 35  1  0  0  0  0
 15 36  1  0  0  0  0
 15 37  1  0  0  0  0
 16 38  1  0  0  0  0
 16 39  1  0  0  0  0
 18 19  1  0  0  0  0
 18 43  1  0  0  0  0
 18 44  1  0  0  0  0
 19 20  2  0  0  0  0
 20 21  1  0  0  0  0
 20 45  1  0  0  0  0
 21 23  2  0  0  0  0
 21 46  1  0  0  0  0
 22 23  1  0  0  0  0
 22 47  1  0  0  0  0
 23 48  1  0  0  0  0
M  END
> <PUBCHEM_COMPOUND_CID>
75536558

> <PUBCHEM_CONFORMER_RMSD>
1

> <PUBCHEM_CONFORMER_DIVERSEORDER>
1
94
36
161
86
125
57
176
175
123
75
88
110
40
142
143
92
156
8
157
67
61
152
19
111
178
149
23
33
168
74
153
109
141
147
154
150
93
106
32
118
66
46
54
130
139
47
170
43
52
155
58
158
127
177
145
60
120
172
55
124
151
24
89
98
159
30
45
137
51
16
3
97
148
81
7
164
113
15
80
73
62
171
108
138
70
69
64
163
134
84
49
72
169
25
133
173
107
59
117
65
121
17
20
6
140
165
166
103
101
21
50
112
53
77
29
129
83
42
144
39
85
82
87
44
38
79
35
116
96
119
28
48
114
18
76
90
105
2
10
167
128
34
56
68
99
31
63
160
11
91
9
37
26
71
13
41
136
78
162
174
22
102
122
115
27
4
95
12
104
126
5
14
100
146
135
132
131

> <PUBCHEM_MMFF94_PARTIAL_CHARGES>
26
1 -0.56
10 0.27
15 0.28
16 0.3
17 0.57
18 0.41
19 0.17
2 -0.68
20 -0.15
21 -0.15
22 0.16
23 -0.15
3 -0.57
4 -0.73
40 0.37
41 0.36
42 0.4
45 0.15
46 0.15
47 0.15
48 0.15
5 -0.9
6 -0.62
7 0.28
8 0.28
9 0.06

> <PUBCHEM_EFFECTIVE_ROTOR_COUNT>
9

> <PUBCHEM_PHARMACOPHORE_FEATURES>
11
1 1 acceptor
1 2 acceptor
1 2 donor
1 3 acceptor
1 4 donor
1 5 cation
1 5 donor
1 6 acceptor
5 1 7 8 10 15 rings
5 9 11 12 13 14 rings
6 6 19 20 21 22 23 rings

> <PUBCHEM_HEAVY_ATOM_COUNT>
23

> <PUBCHEM_ATOM_DEF_STEREO_COUNT>
3

> <PUBCHEM_ATOM_UDEF_STEREO_COUNT>
0

> <PUBCHEM_BOND_DEF_STEREO_COUNT>
0

> <PUBCHEM_BOND_UDEF_STEREO_COUNT>
0

> <PUBCHEM_ISOTOPIC_ATOM_COUNT>
0

> <PUBCHEM_COMPONENT_COUNT>
1

> <PUBCHEM_CACTVS_TAUTO_COUNT>
2

> <PUBCHEM_CONFORMER_ID>
048098AE00000001

> <PUBCHEM_MMFF94_ENERGY>
44.6587

> <PUBCHEM_FEATURE_SELFOVERLAP>
55.822

> <PUBCHEM_SHAPE_FINGERPRINT>
10050765 1 18051412868393669778
10066227 49 18336545998322930906
10299344 5 17967813847133982915
10319688 140 16629696015851786846
11315181 36 17676488350925770125
11524674 6 17775565364658036311
11638347 137 12396292652334114600
12091667 2 18260266352832545923
12166972 35 17967817162659338580
12236239 1 18113053827009681822
13533116 47 13118267158698222672
13685833 64 16343986901540022554
14123256 10 18410575080378667616
14251752 14 18343862208232103733
14251764 18 17385444327700613375
14251764 46 18343864412135752631
14849402 71 16950575422863313957
14856354 85 18412266160239841487
14933364 13 18261110772829439749
15183329 4 15985105201863144287
15461852 350 8070018978888663417
15716309 27 17530682104780614579
15849732 13 18413671326650225277
18006028 8 15769774654172162800
18335252 98 18040157309784328827
20157964 124 16732984215922256634
21095086 128 17240761782966565675
21150785 3 17967817154200590012
21267235 1 18343586243661517224
21315763 28 17312819360188231382
21792961 116 18339635638474824605
22224240 67 14707208829176993736
23035841 295 18411698794537774139
23559900 14 15984806190656445890
246663 6 17988928876707210071
28498 318 15267348400691652116
335352 9 18131346432278937581
34797466 226 17022626364334262678
4325135 7 16443063906840154327
5283156 175 18411698756389483738
5758199 1 16443064989187536097
59682541 35 14851612089610809829
59755656 215 17632579318576868839
59755656 520 17821442486836444019
8209 1 18410573985151457638

> <PUBCHEM_SHAPE_MULTIPOLES>
440.78
25.26
1.27
1.01
2.31
0.17
0.05
-0.8
1.86
0.65
-0.11
-0.7
0.04
-0.08

> <PUBCHEM_SHAPE_SELFOVERLAP>
918.732

> <PUBCHEM_SHAPE_VOLUME>
250.8

> <PUBCHEM_COORDINATE_TYPE>
2
5
10

$$$$
