75367633
  -OEChem-12032416403D

 40 42  0     1  0  0  0  0  0999 V2000
    1.8382   -2.7284    1.1416 O   0  0  0  0  0  0  0  0  0  0  0  0
    0.9462    1.7836   -1.1624 O   0  0  0  0  0  0  0  0  0  0  0  0
   -1.4541   -1.8331   -0.2355 O   0  0  0  0  0  0  0  0  0  0  0  0
    1.8585   -0.3127   -0.6795 N   0  0  0  0  0  0  0  0  0  0  0  0
   -1.8415    0.3735    0.3625 N   0  0  0  0  0  0  0  0  0  0  0  0
    3.1275    1.7845   -0.3198 C   0  0  0  0  0  0  0  0  0  0  0  0
    3.2938    2.0773    1.1322 C   0  0  0  0  0  0  0  0  0  0  0  0
    3.0215    3.1900    0.1648 C   0  0  0  0  0  0  0  0  0  0  0  0
    1.8789    1.0898   -0.7659 C   0  0  0  0  0  0  0  0  0  0  0  0
    0.6379   -1.0248   -1.0607 C   0  0  0  0  0  0  0  0  0  0  0  0
    3.0123   -1.0806   -0.1951 C   0  0  0  0  0  0  0  0  0  0  0  0
   -0.1056   -1.5789    0.1542 C   0  0  2  0  0  0  0  0  0  0  0  0
    2.7758   -2.5589    0.0834 C   0  0  0  0  0  0  0  0  0  0  0  0
    0.4972   -2.8746    0.6918 C   0  0  0  0  0  0  0  0  0  0  0  0
   -2.3336   -0.7918   -0.1145 C   0  0  0  0  0  0  0  0  0  0  0  0
   -3.6566   -0.9839   -0.4789 C   0  0  0  0  0  0  0  0  0  0  0  0
   -2.7207    1.3939    0.4785 C   0  0  0  0  0  0  0  0  0  0  0  0
   -4.5305    0.0892   -0.3454 C   0  0  0  0  0  0  0  0  0  0  0  0
   -4.0616    1.3042    0.1417 C   0  0  0  0  0  0  0  0  0  0  0  0
   -2.1836    2.6819    1.0071 C   0  0  0  0  0  0  0  0  0  0  0  0
    4.0192    1.5413   -0.8887 H   0  0  0  0  0  0  0  0  0  0  0  0
    4.2897    2.0054    1.5517 H   0  0  0  0  0  0  0  0  0  0  0  0
    2.5003    1.8004    1.8157 H   0  0  0  0  0  0  0  0  0  0  0  0
    2.0531    3.6715    0.2228 H   0  0  0  0  0  0  0  0  0  0  0  0
    3.8361    3.8665   -0.0652 H   0  0  0  0  0  0  0  0  0  0  0  0
    0.8949   -1.8155   -1.7754 H   0  0  0  0  0  0  0  0  0  0  0  0
   -0.0109   -0.3429   -1.6220 H   0  0  0  0  0  0  0  0  0  0  0  0
    3.3590   -0.6061    0.7285 H   0  0  0  0  0  0  0  0  0  0  0  0
    3.8061   -0.9701   -0.9426 H   0  0  0  0  0  0  0  0  0  0  0  0
   -0.0434   -0.8628    0.9854 H   0  0  0  0  0  0  0  0  0  0  0  0
    2.4833   -3.1183   -0.8124 H   0  0  0  0  0  0  0  0  0  0  0  0
    3.7193   -2.9960    0.4291 H   0  0  0  0  0  0  0  0  0  0  0  0
   -0.0973   -3.2101    1.5500 H   0  0  0  0  0  0  0  0  0  0  0  0
    0.4271   -3.6854   -0.0448 H   0  0  0  0  0  0  0  0  0  0  0  0
   -4.0066   -1.9382   -0.8570 H   0  0  0  0  0  0  0  0  0  0  0  0
   -5.5752   -0.0213   -0.6202 H   0  0  0  0  0  0  0  0  0  0  0  0
   -4.7341    2.1483    0.2507 H   0  0  0  0  0  0  0  0  0  0  0  0
   -2.3192    3.4814    0.2719 H   0  0  0  0  0  0  0  0  0  0  0  0
   -2.6963    2.9566    1.9344 H   0  0  0  0  0  0  0  0  0  0  0  0
   -1.1131    2.6015    1.2239 H   0  0  0  0  0  0  0  0  0  0  0  0
  1 13  1  0  0  0  0
  1 14  1  0  0  0  0
  2  9  2  0  0  0  0
  3 12  1  0  0  0  0
  3 15  1  0  0  0  0
  4  9  1  0  0  0  0
  4 10  1  0  0  0  0
  4 11  1  0  0  0  0
  5 15  1  0  0  0  0
  5 17  2  0  0  0  0
  6  7  1  0  0  0  0
  6  8  1  0  0  0  0
  6  9  1  0  0  0  0
  6 21  1  0  0  0  0
  7  8  1  0  0  0  0
  7 22  1  0  0  0  0
  7 23  1  0  0  0  0
  8 24  1  0  0  0  0
  8 25  1  0  0  0  0
 10 12  1  0  0  0  0
 10 26  1  0  0  0  0
 10 27  1  0  0  0  0
 11 13  1  0  0  0  0
 11 28  1  0  0  0  0
 11 29  1  0  0  0  0
 12 14  1  0  0  0  0
 12 30  1  0  0  0  0
 13 31  1  0  0  0  0
 13 32  1  0  0  0  0
 14 33  1  0  0  0  0
 14 34  1  0  0  0  0
 15 16  2  0  0  0  0
 16 18  1  0  0  0  0
 16 35  1  0  0  0  0
 17 19  1  0  0  0  0
 17 20  1  0  0  0  0
 18 19  2  0  0  0  0
 18 36  1  0  0  0  0
 19 37  1  0  0  0  0
 20 38  1  0  0  0  0
 20 39  1  0  0  0  0
 20 40  1  0  0  0  0
M  END
> <PUBCHEM_COMPOUND_CID>
75367633

> <PUBCHEM_CONFORMER_RMSD>
0.8

> <PUBCHEM_CONFORMER_DIVERSEORDER>
1
184
210
137
138
173
187
186
115
202
199
7
177
159
2
57
86
93
28
25
179
145
108
191
78
201
51
172
174
18
157
119
109
80
175
72
182
116
188
85
8
149
203
214
33
141
48
156
4
148
205
194
176
9
180
102
114
10
97
204
66
77
105
208
216
154
3
171
136
62
14
135
196
160
192
46
167
61
31
101
190
146
67
163
193
164
73
113
84
185
158
60
124
29
41
155
40
206
151
43
178
170
58
181
127
19
195
90
207
42
98
165
89
34
153
17
23
212
183
168
129
16
144
38
117
213
161
12
87
68
200
13
118
133
55
53
35
103
123
81
75
128
215
169
91
112
50
71
15
82
189
47
132
211
69
99
6
134
121
197
209
74
56
92
26
150
143
152
125
27
140
11
63
21
139
122
5
142
49
64
106
198
36
83
45
120
107
24
88
147
37
54
131
104
32
70
20
76
52
30
44
95
79
110
162
39
59
65
100
94
22
111
96
126
166
130

> <PUBCHEM_MMFF94_PARTIAL_CHARGES>
28
1 -0.56
10 0.3
11 0.3
12 0.28
13 0.28
14 0.28
15 0.39
16 -0.15
17 0.17
18 -0.15
19 -0.15
2 -0.57
20 0.14
21 0.1
22 0.1
23 0.1
24 0.1
25 0.1
3 -0.36
35 0.15
36 0.15
37 0.15
4 -0.66
5 -0.62
6 -0.1
7 -0.2
8 -0.2
9 0.63

> <PUBCHEM_EFFECTIVE_ROTOR_COUNT>
6

> <PUBCHEM_PHARMACOPHORE_FEATURES>
6
1 1 acceptor
1 2 acceptor
1 3 acceptor
1 5 acceptor
6 5 15 16 17 18 19 rings
7 1 4 10 11 12 13 14 rings

> <PUBCHEM_HEAVY_ATOM_COUNT>
20

> <PUBCHEM_ATOM_DEF_STEREO_COUNT>
1

> <PUBCHEM_ATOM_UDEF_STEREO_COUNT>
0

> <PUBCHEM_BOND_DEF_STEREO_COUNT>
0

> <PUBCHEM_BOND_UDEF_STEREO_COUNT>
0

> <PUBCHEM_ISOTOPIC_ATOM_COUNT>
0

> <PUBCHEM_COMPONENT_COUNT>
1

> <PUBCHEM_CACTVS_TAUTO_COUNT>
1

> <PUBCHEM_CONFORMER_ID>
047E04D100000001

> <PUBCHEM_MMFF94_ENERGY>
58.2365

> <PUBCHEM_FEATURE_SELFOVERLAP>
30.495

> <PUBCHEM_SHAPE_FINGERPRINT>
10708813 3 18196938773038440048
11370993 70 18266453389854655728
11725454 13 16986580121500962544
13132413 78 18124313796703852042
13140716 1 18410584954983254555
14178342 30 18117836822802287854
14787075 74 17980478185498343543
14955137 171 17764338066262855187
15442244 35 18267306426151758326
15536298 74 18413672413282069709
17492 89 18413390921537940575
17980427 23 17842537575202835679
192875 21 18126836115175113869
20510252 161 17762347207176272914
20671657 1 18410296878167277047
20715895 44 17979629045026981933
20905425 154 18273217503784238165
21524375 3 18270965759936808252
22749437 52 18337390542889128757
23419403 2 17534033325684910742
23559900 14 17988081080248707062
345986 75 17029080300110957994
469060 322 17831038062608941755
474 4 18260830440044907029
5104073 3 18409737240472099819
526903 126 18270403922527746073
5895379 119 17344641322239527177
5939293 188 18124317099343688340
6328613 192 18191028005535694596
67856867 119 18339631291999699307
7097593 13 18048035164747946587
7364860 26 18411981334560918126
7471813 234 18127951067073214583
7832392 63 17980485563835341979
84936 182 18342176687013705528
9981440 41 18122055670487697610

> <PUBCHEM_SHAPE_MULTIPOLES>
384.02
7.48
3.86
1
4.86
0.15
-0.03
3.2
-0.08
-3.14
-1.09
-0.33
0.09
-0.62

> <PUBCHEM_SHAPE_SELFOVERLAP>
801.133

> <PUBCHEM_SHAPE_VOLUME>
214.6

> <PUBCHEM_COORDINATE_TYPE>
2
5
10

$$$$
