75536641
  -OEChem-12032416303D

 50 52  0     1  0  0  0  0  0999 V2000
   -3.7993    2.7738    1.5090 F   0  0  0  0  0  0  0  0  0  0  0  0
    4.0188    1.0772    0.8897 O   0  0  0  0  0  0  0  0  0  0  0  0
    5.0688   -1.6857   -0.3482 O   0  0  0  0  0  0  0  0  0  0  0  0
    0.6909    0.5396   -2.3138 O   0  0  0  0  0  0  0  0  0  0  0  0
   -4.5403   -1.5654   -0.0773 O   0  0  0  0  0  0  0  0  0  0  0  0
    1.7083   -0.9482    0.8348 N   0  0  0  0  0  0  0  0  0  0  0  0
    2.0235    1.6402   -0.7659 N   0  0  0  0  0  0  0  0  0  0  0  0
    3.1540   -1.1258    0.9525 C   0  0  1  0  0  0  0  0  0  0  0  0
    3.8520   -0.9362   -0.3828 C   0  0  1  0  0  0  0  0  0  0  0  0
    4.1854    0.5540   -0.4413 C   0  0  1  0  0  0  0  0  0  0  0  0
    3.7671   -0.0120    1.7856 C   0  0  0  0  0  0  0  0  0  0  0  0
    3.2850    1.3419   -1.3805 C   0  0  0  0  0  0  0  0  0  0  0  0
    1.0552   -2.1959    0.4575 C   0  0  0  0  0  0  0  0  0  0  0  0
   -0.4343   -2.0285    0.3156 C   0  0  0  0  0  0  0  0  0  0  0  0
    0.8090    1.2082   -1.2903 C   0  0  0  0  0  0  0  0  0  0  0  0
   -1.0098   -1.9560   -0.9529 C   0  0  0  0  0  0  0  0  0  0  0  0
   -1.2388   -1.9456    1.4521 C   0  0  0  0  0  0  0  0  0  0  0  0
   -0.4102    1.6231   -0.5497 C   0  0  0  0  0  0  0  0  0  0  0  0
   -2.3897   -1.8008   -1.0850 C   0  0  0  0  0  0  0  0  0  0  0  0
   -2.6186   -1.7902    1.3202 C   0  0  0  0  0  0  0  0  0  0  0  0
   -3.1940   -1.7179    0.0515 C   0  0  0  0  0  0  0  0  0  0  0  0
   -1.6250    1.7517   -1.2231 C   0  0  0  0  0  0  0  0  0  0  0  0
   -0.3405    1.8832    0.8189 C   0  0  0  0  0  0  0  0  0  0  0  0
   -2.7700    2.1408   -0.5279 C   0  0  0  0  0  0  0  0  0  0  0  0
   -1.4854    2.2723    1.5141 C   0  0  0  0  0  0  0  0  0  0  0  0
   -2.7001    2.4011    0.8406 C   0  0  0  0  0  0  0  0  0  0  0  0
   -5.0622   -1.4988   -1.4036 C   0  0  0  0  0  0  0  0  0  0  0  0
    3.3844   -2.0844    1.4336 H   0  0  0  0  0  0  0  0  0  0  0  0
    3.2865   -1.2970   -1.2473 H   0  0  0  0  0  0  0  0  0  0  0  0
    5.2300    0.7076   -0.7367 H   0  0  0  0  0  0  0  0  0  0  0  0
    3.1389    0.3304    2.6139 H   0  0  0  0  0  0  0  0  0  0  0  0
    4.7306   -0.3252    2.2046 H   0  0  0  0  0  0  0  0  0  0  0  0
    3.1619    0.8385   -2.3446 H   0  0  0  0  0  0  0  0  0  0  0  0
    3.7449    2.3176   -1.5755 H   0  0  0  0  0  0  0  0  0  0  0  0
    1.3331   -0.6458    1.7341 H   0  0  0  0  0  0  0  0  0  0  0  0
    1.2432   -2.9744    1.2089 H   0  0  0  0  0  0  0  0  0  0  0  0
    1.4653   -2.5757   -0.4863 H   0  0  0  0  0  0  0  0  0  0  0  0
    5.5249   -1.5374   -1.1943 H   0  0  0  0  0  0  0  0  0  0  0  0
    2.0441    2.2589    0.0377 H   0  0  0  0  0  0  0  0  0  0  0  0
   -0.3954   -2.0231   -1.8467 H   0  0  0  0  0  0  0  0  0  0  0  0
   -0.8022   -2.0004    2.4458 H   0  0  0  0  0  0  0  0  0  0  0  0
   -2.7702   -1.7512   -2.0994 H   0  0  0  0  0  0  0  0  0  0  0  0
   -3.2401   -1.7248    2.2091 H   0  0  0  0  0  0  0  0  0  0  0  0
   -1.6995    1.5561   -2.2895 H   0  0  0  0  0  0  0  0  0  0  0  0
    0.5781    1.7738    1.3870 H   0  0  0  0  0  0  0  0  0  0  0  0
   -3.7162    2.2397   -1.0515 H   0  0  0  0  0  0  0  0  0  0  0  0
   -1.4332    2.4693    2.5808 H   0  0  0  0  0  0  0  0  0  0  0  0
   -6.1470   -1.3770   -1.3183 H   0  0  0  0  0  0  0  0  0  0  0  0
   -4.8869   -2.4303   -1.9524 H   0  0  0  0  0  0  0  0  0  0  0  0
   -4.6835   -0.6226   -1.9411 H   0  0  0  0  0  0  0  0  0  0  0  0
  1 26  1  0  0  0  0
  2 10  1  0  0  0  0
  2 11  1  0  0  0  0
  3  9  1  0  0  0  0
  3 38  1  0  0  0  0
  4 15  2  0  0  0  0
  5 21  1  0  0  0  0
  5 27  1  0  0  0  0
  6  8  1  0  0  0  0
  6 13  1  0  0  0  0
  6 35  1  0  0  0  0
  7 12  1  0  0  0  0
  7 15  1  0  0  0  0
  7 39  1  0  0  0  0
  8  9  1  0  0  0  0
  8 11  1  0  0  0  0
  8 28  1  0  0  0  0
  9 10  1  0  0  0  0
  9 29  1  0  0  0  0
 10 12  1  0  0  0  0
 10 30  1  0  0  0  0
 11 31  1  0  0  0  0
 11 32  1  0  0  0  0
 12 33  1  0  0  0  0
 12 34  1  0  0  0  0
 13 14  1  0  0  0  0
 13 36  1  0  0  0  0
 13 37  1  0  0  0  0
 14 16  2  0  0  0  0
 14 17  1  0  0  0  0
 15 18  1  0  0  0  0
 16 19  1  0  0  0  0
 16 40  1  0  0  0  0
 17 20  2  0  0  0  0
 17 41  1  0  0  0  0
 18 22  2  0  0  0  0
 18 23  1  0  0  0  0
 19 21  2  0  0  0  0
 19 42  1  0  0  0  0
 20 21  1  0  0  0  0
 20 43  1  0  0  0  0
 22 24  1  0  0  0  0
 22 44  1  0  0  0  0
 23 25  2  0  0  0  0
 23 45  1  0  0  0  0
 24 26  2  0  0  0  0
 24 46  1  0  0  0  0
 25 26  1  0  0  0  0
 25 47  1  0  0  0  0
 27 48  1  0  0  0  0
 27 49  1  0  0  0  0
 27 50  1  0  0  0  0
M  END
> <PUBCHEM_COMPOUND_CID>
75536641

> <PUBCHEM_CONFORMER_RMSD>
1

> <PUBCHEM_CONFORMER_DIVERSEORDER>
5
73
19
108
36
97
57
21
136
112
85
103
72
40
8
105
104
37
89
78
84
7
60
130
26
82
117
35
59
23
100
119
134
111
123
32
87
64
99
43
129
1
79
116
65
51
52
11
38
125
10
74
39
76
75
20
46
128
93
48
14
135
109
33
110
133
30
4
44
12
53
28
3
71
47
18
90
127
122
94
132
24
114
92
66
45
113
124
101
16
49
126
88
22
81
137
31
131
98
29
80
83
68
118
120
77
15
102
115
25
67
106
54
61
27
69
91
107
58
13
86
56
96
50
55
42
17
2
121
70
63
9
34
95
62
6
41

> <PUBCHEM_MMFF94_PARTIAL_CHARGES>
38
1 -0.19
10 0.28
11 0.28
12 0.3
13 0.41
14 -0.14
15 0.54
16 -0.15
17 -0.15
18 0.09
19 -0.15
2 -0.56
20 -0.15
21 0.08
22 -0.15
23 -0.15
24 -0.15
25 -0.15
26 0.19
27 0.28
3 -0.68
35 0.36
38 0.4
39 0.37
4 -0.57
40 0.15
41 0.15
42 0.15
43 0.15
44 0.15
45 0.15
46 0.15
47 0.15
5 -0.36
6 -0.9
7 -0.73
8 0.27
9 0.28

> <PUBCHEM_EFFECTIVE_ROTOR_COUNT>
9

> <PUBCHEM_PHARMACOPHORE_FEATURES>
11
1 2 acceptor
1 3 acceptor
1 3 donor
1 4 acceptor
1 5 acceptor
1 6 cation
1 6 donor
1 7 donor
5 2 8 9 10 11 rings
6 14 16 17 19 20 21 rings
6 18 22 23 24 25 26 rings

> <PUBCHEM_HEAVY_ATOM_COUNT>
27

> <PUBCHEM_ATOM_DEF_STEREO_COUNT>
3

> <PUBCHEM_ATOM_UDEF_STEREO_COUNT>
0

> <PUBCHEM_BOND_DEF_STEREO_COUNT>
0

> <PUBCHEM_BOND_UDEF_STEREO_COUNT>
0

> <PUBCHEM_ISOTOPIC_ATOM_COUNT>
0

> <PUBCHEM_COMPONENT_COUNT>
1

> <PUBCHEM_CACTVS_TAUTO_COUNT>
2

> <PUBCHEM_CONFORMER_ID>
0480990100000005

> <PUBCHEM_MMFF94_ENERGY>
71.7322

> <PUBCHEM_FEATURE_SELFOVERLAP>
55.823

> <PUBCHEM_SHAPE_FINGERPRINT>
104564 63 18409737295489132819
10708813 3 18261674774870513444
11513181 2 18271251525354532198
11578080 2 16700645349259827497
12035759 4 18040989652976270443
12422481 6 18193865702932333697
12633257 1 18192426369059993346
12788726 201 18269006442869281405
13140716 1 18335700495297043616
13224815 77 18187079559904375824
14251757 17 17096624643513281175
14464042 87 18411136965792246151
16752209 62 18410862087415725982
17138139 8 17982693504171177045
17357779 13 18338786914156043059
20261772 1 18114753611893728176
20775438 99 16901835395856012527
21236236 1 18408606946840339702
23419403 2 17978191106517457341
23557571 272 18131070428653088542
2818148 4 17971188128403915314
3027735 51 18411138013463995347
35225 105 18129661894175877368
4340502 62 18127140675981504721
469060 322 17458341918446699135
6034566 193 15723930702074077484
6287921 2 17337034793977933699
6438718 38 18342182154459645823
7064713 232 18338797788802357233

> <PUBCHEM_SHAPE_MULTIPOLES>
514.93
8.58
3.44
1.74
3.01
0.77
-0.02
-2.16
-0.42
-2.82
0.61
-0.19
0.38
-1.31

> <PUBCHEM_SHAPE_SELFOVERLAP>
1096.152

> <PUBCHEM_SHAPE_VOLUME>
289.1

> <PUBCHEM_COORDINATE_TYPE>
2
5
10

$$$$
