38026613
  -OEChem-12032416353D

 62 65  0     1  0  0  0  0  0999 V2000
   -0.1112   -2.3544   -0.6846 O   0  0  0  0  0  0  0  0  0  0  0  0
   -2.4467   -2.4292    1.1884 O   0  0  0  0  0  0  0  0  0  0  0  0
    0.2642   -5.1332   -0.4787 O   0  0  0  0  0  0  0  0  0  0  0  0
    2.3101   -1.7554    1.1024 O   0  0  0  0  0  0  0  0  0  0  0  0
   -2.9307   -0.0198   -0.2991 N   0  0  1  0  0  0  0  0  0  0  0  0
    1.2484    0.1606    0.3372 N   0  0  0  0  0  0  0  0  0  0  0  0
    7.4367    1.7854   -0.2538 N   0  0  0  0  0  0  0  0  0  0  0  0
   -2.1437   -1.1257   -0.8433 C   0  0  1  0  0  0  0  0  0  0  0  0
   -0.6201   -1.0023   -0.7133 C   0  0  1  0  0  0  0  0  0  0  0  0
   -2.4307   -2.4885   -0.2319 C   0  0  1  0  0  0  0  0  0  0  0  0
   -1.2188   -3.2751   -0.7171 C   0  0  2  0  0  0  0  0  0  0  0  0
   -2.5463    1.2511   -0.9255 C   0  0  0  0  0  0  0  0  0  0  0  0
   -4.3699   -0.2689   -0.4945 C   0  0  0  0  0  0  0  0  0  0  0  0
   -0.0953   -0.2954    0.5314 C   0  0  0  0  0  0  0  0  0  0  0  0
   -3.2269    2.4160   -0.1995 C   0  0  0  0  0  0  0  0  0  0  0  0
   -0.8701   -4.5067    0.0984 C   0  0  0  0  0  0  0  0  0  0  0  0
   -5.2400    0.8961   -0.0818 C   0  0  0  0  0  0  0  0  0  0  0  0
   -4.7007    2.1903    0.0160 C   0  0  0  0  0  0  0  0  0  0  0  0
   -6.6091    0.6997    0.1444 C   0  0  0  0  0  0  0  0  0  0  0  0
   -5.5293    3.2613    0.3746 C   0  0  0  0  0  0  0  0  0  0  0  0
   -7.4280    1.7740    0.4914 C   0  0  0  0  0  0  0  0  0  0  0  0
   -6.8882    3.0529    0.6086 C   0  0  0  0  0  0  0  0  0  0  0  0
    2.3624   -0.6177    0.6429 C   0  0  0  0  0  0  0  0  0  0  0  0
    3.6882    0.0102    0.4084 C   0  0  0  0  0  0  0  0  0  0  0  0
    4.7931   -0.3934    1.1581 C   0  0  0  0  0  0  0  0  0  0  0  0
    3.8281    1.0036   -0.5609 C   0  0  0  0  0  0  0  0  0  0  0  0
    6.0381    0.1960    0.9382 C   0  0  0  0  0  0  0  0  0  0  0  0
    5.0731    1.5932   -0.7805 C   0  0  0  0  0  0  0  0  0  0  0  0
    6.1781    1.1894   -0.0312 C   0  0  0  0  0  0  0  0  0  0  0  0
    8.5912    1.3729    0.5192 C   0  0  0  0  0  0  0  0  0  0  0  0
    7.5940    2.8130   -1.2640 C   0  0  0  0  0  0  0  0  0  0  0  0
   -2.3546   -1.2151   -1.9214 H   0  0  0  0  0  0  0  0  0  0  0  0
   -0.2162   -0.5181   -1.6117 H   0  0  0  0  0  0  0  0  0  0  0  0
   -3.3690   -2.9391   -0.5682 H   0  0  0  0  0  0  0  0  0  0  0  0
   -1.3443   -3.5519   -1.7718 H   0  0  0  0  0  0  0  0  0  0  0  0
   -2.8459    1.2539   -1.9835 H   0  0  0  0  0  0  0  0  0  0  0  0
   -1.4709    1.4471   -0.9217 H   0  0  0  0  0  0  0  0  0  0  0  0
   -4.6740   -1.1293    0.1127 H   0  0  0  0  0  0  0  0  0  0  0  0
   -4.5906   -0.4963   -1.5462 H   0  0  0  0  0  0  0  0  0  0  0  0
   -0.0874   -0.9636    1.3973 H   0  0  0  0  0  0  0  0  0  0  0  0
   -0.6645    0.5894    0.8182 H   0  0  0  0  0  0  0  0  0  0  0  0
   -3.0751    3.3320   -0.7831 H   0  0  0  0  0  0  0  0  0  0  0  0
   -2.7559    2.5608    0.7812 H   0  0  0  0  0  0  0  0  0  0  0  0
   -1.7011   -5.2185    0.1076 H   0  0  0  0  0  0  0  0  0  0  0  0
   -0.6008   -4.2485    1.1271 H   0  0  0  0  0  0  0  0  0  0  0  0
   -1.5455   -2.2949    1.5174 H   0  0  0  0  0  0  0  0  0  0  0  0
    1.3619    1.1142    0.0108 H   0  0  0  0  0  0  0  0  0  0  0  0
   -7.0442   -0.2921    0.0510 H   0  0  0  0  0  0  0  0  0  0  0  0
   -5.1193    4.2631    0.4734 H   0  0  0  0  0  0  0  0  0  0  0  0
    0.4608   -5.9201    0.0576 H   0  0  0  0  0  0  0  0  0  0  0  0
   -8.4873    1.6133    0.6695 H   0  0  0  0  0  0  0  0  0  0  0  0
   -7.5259    3.8884    0.8825 H   0  0  0  0  0  0  0  0  0  0  0  0
    4.7028   -1.1625    1.9207 H   0  0  0  0  0  0  0  0  0  0  0  0
    3.0008    1.3243   -1.1870 H   0  0  0  0  0  0  0  0  0  0  0  0
    6.8664   -0.1519    1.5475 H   0  0  0  0  0  0  0  0  0  0  0  0
    5.1321    2.3564   -1.5502 H   0  0  0  0  0  0  0  0  0  0  0  0
    9.4908    1.9284    0.2314 H   0  0  0  0  0  0  0  0  0  0  0  0
    8.8160    0.3124    0.3599 H   0  0  0  0  0  0  0  0  0  0  0  0
    8.4394    1.5599    1.5882 H   0  0  0  0  0  0  0  0  0  0  0  0
    8.6270    3.1747   -1.3162 H   0  0  0  0  0  0  0  0  0  0  0  0
    6.9700    3.6857   -1.0415 H   0  0  0  0  0  0  0  0  0  0  0  0
    7.3479    2.4295   -2.2604 H   0  0  0  0  0  0  0  0  0  0  0  0
  1  9  1  0  0  0  0
  1 11  1  0  0  0  0
  2 10  1  0  0  0  0
  2 46  1  0  0  0  0
  3 16  1  0  0  0  0
  3 50  1  0  0  0  0
  4 23  2  0  0  0  0
  5  8  1  0  0  0  0
  5 12  1  0  0  0  0
  5 13  1  0  0  0  0
  6 14  1  0  0  0  0
  6 23  1  0  0  0  0
  6 47  1  0  0  0  0
  7 29  1  0  0  0  0
  7 30  1  0  0  0  0
  7 31  1  0  0  0  0
  8  9  1  0  0  0  0
  8 10  1  0  0  0  0
  8 32  1  0  0  0  0
  9 14  1  0  0  0  0
  9 33  1  0  0  0  0
 10 11  1  0  0  0  0
 10 34  1  0  0  0  0
 11 16  1  0  0  0  0
 11 35  1  0  0  0  0
 12 15  1  0  0  0  0
 12 36  1  0  0  0  0
 12 37  1  0  0  0  0
 13 17  1  0  0  0  0
 13 38  1  0  0  0  0
 13 39  1  0  0  0  0
 14 40  1  0  0  0  0
 14 41  1  0  0  0  0
 15 18  1  0  0  0  0
 15 42  1  0  0  0  0
 15 43  1  0  0  0  0
 16 44  1  0  0  0  0
 16 45  1  0  0  0  0
 17 18  1  0  0  0  0
 17 19  2  0  0  0  0
 18 20  2  0  0  0  0
 19 21  1  0  0  0  0
 19 48  1  0  0  0  0
 20 22  1  0  0  0  0
 20 49  1  0  0  0  0
 21 22  2  0  0  0  0
 21 51  1  0  0  0  0
 22 52  1  0  0  0  0
 23 24  1  0  0  0  0
 24 25  2  0  0  0  0
 24 26  1  0  0  0  0
 25 27  1  0  0  0  0
 25 53  1  0  0  0  0
 26 28  2  0  0  0  0
 26 54  1  0  0  0  0
 27 29  2  0  0  0  0
 27 55  1  0  0  0  0
 28 29  1  0  0  0  0
 28 56  1  0  0  0  0
 30 57  1  0  0  0  0
 30 58  1  0  0  0  0
 30 59  1  0  0  0  0
 31 60  1  0  0  0  0
 31 61  1  0  0  0  0
 31 62  1  0  0  0  0
M  END
> <PUBCHEM_COMPOUND_CID>
38026613

> <PUBCHEM_CONFORMER_RMSD>
1

> <PUBCHEM_CONFORMER_DIVERSEORDER>
1
27
28
14
25
26
35
5
6
11
38
21
30
22
4
31
33
13
24
20
37
10
32
29
16
15
3
34
8
7
23
17
36
19
2
18
12
9

> <PUBCHEM_MMFF94_PARTIAL_CHARGES>
42
1 -0.56
10 0.28
11 0.28
12 0.27
13 0.41
14 0.3
15 0.14
16 0.28
17 -0.14
18 -0.14
19 -0.15
2 -0.68
20 -0.15
21 -0.15
22 -0.15
23 0.54
24 0.09
25 -0.15
26 -0.15
27 -0.15
28 -0.15
29 0.1
3 -0.68
30 0.37
31 0.37
4 -0.57
46 0.4
47 0.37
48 0.15
49 0.15
5 -0.81
50 0.4
51 0.15
52 0.15
53 0.15
54 0.15
55 0.15
56 0.15
6 -0.73
7 -0.84
8 0.27
9 0.28

> <PUBCHEM_EFFECTIVE_ROTOR_COUNT>
8.8

> <PUBCHEM_PHARMACOPHORE_FEATURES>
13
1 1 acceptor
1 2 acceptor
1 2 donor
1 3 acceptor
1 3 donor
1 4 acceptor
1 5 cation
1 6 donor
1 7 cation
5 1 8 9 10 11 rings
6 17 18 19 20 21 22 rings
6 24 25 26 27 28 29 rings
6 5 12 13 15 17 18 rings

> <PUBCHEM_HEAVY_ATOM_COUNT>
31

> <PUBCHEM_ATOM_DEF_STEREO_COUNT>
4

> <PUBCHEM_ATOM_UDEF_STEREO_COUNT>
0

> <PUBCHEM_BOND_DEF_STEREO_COUNT>
0

> <PUBCHEM_BOND_UDEF_STEREO_COUNT>
0

> <PUBCHEM_ISOTOPIC_ATOM_COUNT>
0

> <PUBCHEM_COMPONENT_COUNT>
1

> <PUBCHEM_CACTVS_TAUTO_COUNT>
2

> <PUBCHEM_CONFORMER_ID>
02443D7500000001

> <PUBCHEM_MMFF94_ENERGY>
101.2522

> <PUBCHEM_FEATURE_SELFOVERLAP>
65.999

> <PUBCHEM_SHAPE_FINGERPRINT>
10 15 18333453127657889089
10165383 225 18343019978637064569
10190206 1 18200296828222277671
10369192 42 18411417289691647173
10411042 1 17763461013168438551
10904742 90 18410011018102777608
10939801 23 18334579044713530476
11408170 253 18271816726145636184
11828042 279 18191563295630334839
12107183 9 18263350418492871842
12522641 68 18059852853415561983
12788726 201 17631733759812573760
12895837 130 18263086668365844644
13248334 5 17979073786922495191
13757389 114 18270962487446646359
14251764 75 18409165480765651106
14294032 229 18201719604573833999
14394314 77 18409450271811529429
14790565 3 18411981334724584793
14849402 71 17978232664658423643
15064981 194 17971762317853642838
15183329 4 13326852210562399733
15188451 53 9511464412103649628
15198563 99 17912912066696420831
15297060 5 18343866610531572968
15338160 23 18334579092062892603
15439362 3 18341614768454393606
15604295 49 18198899404942050784
1577012 14 18410287004285428788
15890870 6 18412544293315634325
15927050 60 18342734092502958415
16126227 98 18411138056133983049
16992610 120 18337123315136571748
18393751 57 18259987038018747987
18785283 64 18048592625643726587
19053607 189 18268416946102994249
19303781 99 11314898833159298193
20505436 4 18187079564453083978
20691028 202 18339639040211028216
21033648 29 18201141235402457792
21424621 283 18341611499213439873
21756936 100 18341326768941630351
21781055 127 17845653634543775458
23522609 53 17750245867128767876
24771750 20 18200600181135029902
249999 5 18196652883062500767
25019877 29 18413109446560347255
3411729 13 18267583503652040331
4073 2 18259707804456141378
5104073 3 17895463830664198512
5219985 13 18341890766630006887
5265222 85 18342175621750968224
5776283 40 18273212023501382473
5911458 16 18334299773139315172
6327066 14 18410290285862047661
6700243 42 17550144727650152214
6703917 75 18341902900323704305
7808743 9 18411132549948544487
9896288 288 18262522631459494802
9981440 41 18409453570641045651

> <PUBCHEM_SHAPE_MULTIPOLES>
599.55
21.94
4.82
1.01
22.3
5.79
-0.01
-27.74
-1.87
-3.78
0.53
0.72
0
-2.07

> <PUBCHEM_SHAPE_SELFOVERLAP>
1279.908

> <PUBCHEM_SHAPE_VOLUME>
332.3

> <PUBCHEM_COORDINATE_TYPE>
2
5
10

$$$$
