40780200
  -OEChem-12032416163D

 69 74  0     1  0  0  0  0  0999 V2000
   -4.3851   -1.9842   -2.8705 O   0  0  0  0  0  0  0  0  0  0  0  0
    4.7963    1.6588   -0.0810 O   0  0  0  0  0  0  0  0  0  0  0  0
    0.6473    3.4423   -0.6142 N   0  0  2  0  0  0  0  0  0  0  0  0
   -3.1487    0.9161    1.0357 N   0  0  2  0  0  0  0  0  0  0  0  0
   -4.4079   -1.5345   -0.5727 N   0  0  0  0  0  0  0  0  0  0  0  0
    2.9076    0.8778    0.9972 N   0  0  0  0  0  0  0  0  0  0  0  0
    4.6813   -0.5403    0.7321 N   0  0  0  0  0  0  0  0  0  0  0  0
   -1.0460    1.4993   -0.9669 C   0  0  2  0  0  0  0  0  0  0  0  0
   -1.6023    2.5419    0.0296 C   0  0  2  0  0  0  0  0  0  0  0  0
    0.3049    0.9708   -0.4507 C   0  0  0  0  0  0  0  0  0  0  0  0
    1.3205    2.1336   -0.3946 C   0  0  2  0  0  0  0  0  0  0  0  0
   -0.5027    3.5906    0.3103 C   0  0  0  0  0  0  0  0  0  0  0  0
   -0.7701    2.2446   -2.2867 C   0  0  0  0  0  0  0  0  0  0  0  0
   -2.1273    1.9228    1.3139 C   0  0  0  0  0  0  0  0  0  0  0  0
    0.1287    3.4614   -2.0036 C   0  0  0  0  0  0  0  0  0  0  0  0
   -5.5534    0.5161    0.4493 C   0  0  2  0  0  0  0  0  0  0  0  0
   -4.3870   -1.0737    1.9027 C   0  0  1  0  0  0  0  0  0  0  0  0
   -4.4308    1.5461    0.6973 C   0  0  0  0  0  0  0  0  0  0  0  0
   -3.2893   -0.0171    2.1636 C   0  0  0  0  0  0  0  0  0  0  0  0
   -5.7241   -0.3740    1.6735 C   0  0  0  0  0  0  0  0  0  0  0  0
    2.1419    2.1092    0.8965 C   0  0  0  0  0  0  0  0  0  0  0  0
   -5.2804   -0.3699   -0.7738 C   0  0  0  0  0  0  0  0  0  0  0  0
   -4.0202   -1.9372    0.7100 C   0  0  0  0  0  0  0  0  0  0  0  0
   -3.3132   -3.0680    0.8782 C   0  0  0  0  0  0  0  0  0  0  0  0
   -4.0640   -2.2755   -1.7183 C   0  0  0  0  0  0  0  0  0  0  0  0
   -2.9268   -3.8674   -0.2500 C   0  0  0  0  0  0  0  0  0  0  0  0
   -3.2602   -3.5095   -1.4927 C   0  0  0  0  0  0  0  0  0  0  0  0
    4.1995    0.7491    0.4901 C   0  0  0  0  0  0  0  0  0  0  0  0
    5.9419   -1.0763    0.3798 C   0  0  0  0  0  0  0  0  0  0  0  0
    6.2536   -2.3966    0.7041 C   0  0  0  0  0  0  0  0  0  0  0  0
    6.8735   -0.2845   -0.2916 C   0  0  0  0  0  0  0  0  0  0  0  0
    7.4970   -2.9253    0.3569 C   0  0  0  0  0  0  0  0  0  0  0  0
    8.1168   -0.8130   -0.6388 C   0  0  0  0  0  0  0  0  0  0  0  0
    8.4285   -2.1334   -0.3145 C   0  0  0  0  0  0  0  0  0  0  0  0
   -1.7421    0.6744   -1.1489 H   0  0  0  0  0  0  0  0  0  0  0  0
   -2.4237    3.0753   -0.4671 H   0  0  0  0  0  0  0  0  0  0  0  0
    0.1741    0.4872    0.5229 H   0  0  0  0  0  0  0  0  0  0  0  0
    0.6787    0.1980   -1.1345 H   0  0  0  0  0  0  0  0  0  0  0  0
    2.0372    1.9922   -1.2171 H   0  0  0  0  0  0  0  0  0  0  0  0
   -0.9257    4.5973    0.1935 H   0  0  0  0  0  0  0  0  0  0  0  0
   -0.1599    3.5543    1.3505 H   0  0  0  0  0  0  0  0  0  0  0  0
   -1.7109    2.5741   -2.7430 H   0  0  0  0  0  0  0  0  0  0  0  0
   -0.2803    1.5721   -3.0013 H   0  0  0  0  0  0  0  0  0  0  0  0
   -2.5129    2.7022    1.9851 H   0  0  0  0  0  0  0  0  0  0  0  0
   -1.2883    1.4645    1.8522 H   0  0  0  0  0  0  0  0  0  0  0  0
    0.9641    3.4816   -2.7144 H   0  0  0  0  0  0  0  0  0  0  0  0
   -0.4272    4.3913   -2.1793 H   0  0  0  0  0  0  0  0  0  0  0  0
   -6.4809    1.0744    0.2703 H   0  0  0  0  0  0  0  0  0  0  0  0
   -4.4802   -1.7021    2.7982 H   0  0  0  0  0  0  0  0  0  0  0  0
   -4.3363    2.1545   -0.2085 H   0  0  0  0  0  0  0  0  0  0  0  0
   -4.7497    2.2208    1.5036 H   0  0  0  0  0  0  0  0  0  0  0  0
   -3.5297    0.5309    3.0849 H   0  0  0  0  0  0  0  0  0  0  0  0
   -2.3350   -0.5314    2.3365 H   0  0  0  0  0  0  0  0  0  0  0  0
   -6.5287   -1.1032    1.5170 H   0  0  0  0  0  0  0  0  0  0  0  0
   -5.9988    0.2260    2.5495 H   0  0  0  0  0  0  0  0  0  0  0  0
    1.5091    2.1543    1.7884 H   0  0  0  0  0  0  0  0  0  0  0  0
    2.8340    2.9583    0.9277 H   0  0  0  0  0  0  0  0  0  0  0  0
   -6.2366   -0.7760   -1.1313 H   0  0  0  0  0  0  0  0  0  0  0  0
   -4.8791    0.2274   -1.6022 H   0  0  0  0  0  0  0  0  0  0  0  0
    2.4764    0.0798    1.4530 H   0  0  0  0  0  0  0  0  0  0  0  0
   -2.9940   -3.3991    1.8608 H   0  0  0  0  0  0  0  0  0  0  0  0
   -2.3472   -4.7653   -0.0671 H   0  0  0  0  0  0  0  0  0  0  0  0
   -2.9718   -4.1004   -2.3538 H   0  0  0  0  0  0  0  0  0  0  0  0
    4.0564   -1.1774    1.2196 H   0  0  0  0  0  0  0  0  0  0  0  0
    5.5367   -3.0244    1.2271 H   0  0  0  0  0  0  0  0  0  0  0  0
    6.7063    0.7445   -0.5764 H   0  0  0  0  0  0  0  0  0  0  0  0
    7.7398   -3.9534    0.6094 H   0  0  0  0  0  0  0  0  0  0  0  0
    8.8432   -0.1976   -1.1616 H   0  0  0  0  0  0  0  0  0  0  0  0
    9.3966   -2.5450   -0.5847 H   0  0  0  0  0  0  0  0  0  0  0  0
  1 25  2  0  0  0  0
  2 28  2  0  0  0  0
  3 11  1  0  0  0  0
  3 12  1  0  0  0  0
  3 15  1  0  0  0  0
  4 14  1  0  0  0  0
  4 18  1  0  0  0  0
  4 19  1  0  0  0  0
  5 22  1  0  0  0  0
  5 23  1  0  0  0  0
  5 25  1  0  0  0  0
  6 21  1  0  0  0  0
  6 28  1  0  0  0  0
  6 60  1  0  0  0  0
  7 28  1  0  0  0  0
  7 29  1  0  0  0  0
  7 64  1  0  0  0  0
  8  9  1  0  0  0  0
  8 10  1  0  0  0  0
  8 13  1  0  0  0  0
  8 35  1  0  0  0  0
  9 12  1  0  0  0  0
  9 14  1  0  0  0  0
  9 36  1  0  0  0  0
 10 11  1  0  0  0  0
 10 37  1  0  0  0  0
 10 38  1  0  0  0  0
 11 21  1  0  0  0  0
 11 39  1  0  0  0  0
 12 40  1  0  0  0  0
 12 41  1  0  0  0  0
 13 15  1  0  0  0  0
 13 42  1  0  0  0  0
 13 43  1  0  0  0  0
 14 44  1  0  0  0  0
 14 45  1  0  0  0  0
 15 46  1  0  0  0  0
 15 47  1  0  0  0  0
 16 18  1  0  0  0  0
 16 20  1  0  0  0  0
 16 22  1  0  0  0  0
 16 48  1  0  0  0  0
 17 19  1  0  0  0  0
 17 20  1  0  0  0  0
 17 23  1  0  0  0  0
 17 49  1  0  0  0  0
 18 50  1  0  0  0  0
 18 51  1  0  0  0  0
 19 52  1  0  0  0  0
 19 53  1  0  0  0  0
 20 54  1  0  0  0  0
 20 55  1  0  0  0  0
 21 56  1  0  0  0  0
 21 57  1  0  0  0  0
 22 58  1  0  0  0  0
 22 59  1  0  0  0  0
 23 24  2  0  0  0  0
 24 26  1  0  0  0  0
 24 61  1  0  0  0  0
 25 27  1  0  0  0  0
 26 27  2  0  0  0  0
 26 62  1  0  0  0  0
 27 63  1  0  0  0  0
 29 30  2  0  0  0  0
 29 31  1  0  0  0  0
 30 32  1  0  0  0  0
 30 65  1  0  0  0  0
 31 33  2  0  0  0  0
 31 66  1  0  0  0  0
 32 34  2  0  0  0  0
 32 67  1  0  0  0  0
 33 34  1  0  0  0  0
 33 68  1  0  0  0  0
 34 69  1  0  0  0  0
M  END
> <PUBCHEM_COMPOUND_CID>
40780200

> <PUBCHEM_CONFORMER_RMSD>
1

> <PUBCHEM_CONFORMER_DIVERSEORDER>
1
15
61
66
7
56
85
22
54
40
50
43
92
20
12
63
80
89
47
97
75
24
16
59
67
41
52
28
36
39
55
101
91
65
93
29
90
73
88
96
57
71
6
8
10
18
51
70
86
78
77
98
102
45
46
38
5
34
37
79
99
81
53
26
58
33
21
48
35
31
14
30
19
95
76
17
68
44
72
84
27
60
3
100
25
69
82
103
62
49
87
11
9
104
83
32
2
23
13
64
94
42
4
74

> <PUBCHEM_MMFF94_PARTIAL_CHARGES>
38
1 -0.57
11 0.27
12 0.27
14 0.27
15 0.27
17 0.14
18 0.27
19 0.27
2 -0.57
21 0.3
22 0.3
23 -0.03
24 -0.15
25 0.62
26 -0.15
27 -0.14
28 0.69
29 0.12
3 -0.81
30 -0.15
31 -0.15
32 -0.15
33 -0.15
34 -0.15
4 -0.81
5 -0.47
6 -0.73
60 0.37
61 0.15
62 0.15
63 0.15
64 0.37
65 0.15
66 0.15
67 0.15
68 0.15
69 0.15
7 -0.55

> <PUBCHEM_EFFECTIVE_ROTOR_COUNT>
9.2

> <PUBCHEM_PHARMACOPHORE_FEATURES>
11
1 1 acceptor
1 2 acceptor
1 3 cation
1 4 cation
1 6 donor
1 7 donor
6 29 30 31 32 33 34 rings
6 4 16 17 18 19 20 rings
6 5 16 17 20 22 23 rings
6 5 23 24 25 26 27 rings
8 3 8 9 10 11 12 13 15 rings

> <PUBCHEM_HEAVY_ATOM_COUNT>
34

> <PUBCHEM_ATOM_DEF_STEREO_COUNT>
5

> <PUBCHEM_ATOM_UDEF_STEREO_COUNT>
0

> <PUBCHEM_BOND_DEF_STEREO_COUNT>
0

> <PUBCHEM_BOND_UDEF_STEREO_COUNT>
0

> <PUBCHEM_ISOTOPIC_ATOM_COUNT>
0

> <PUBCHEM_COMPONENT_COUNT>
1

> <PUBCHEM_CACTVS_TAUTO_COUNT>
9

> <PUBCHEM_CONFORMER_ID>
026E41A800000001

> <PUBCHEM_MMFF94_ENERGY>
88.5757

> <PUBCHEM_FEATURE_SELFOVERLAP>
57.429

> <PUBCHEM_SHAPE_FINGERPRINT>
10622 236 17912635002165605135
11227150 75 16267953627838095215
11387372 6 18271527511567967494
11477941 20 17022905610676680132
11621639 254 17168727279622082196
117089 54 18189627205513933274
12174731 88 18412265047046921443
12422481 6 17703793630610274030
12655364 131 16630244701833098463
1361 4 18338799993339261722
13690498 29 18040995090801000028
13782708 43 18411135819331468576
14178184 131 18272367551716850366
14664723 55 12686463623100515543
14705955 166 16629697123916166049
14950920 106 17704354377129499496
15119646 57 13190606214532462959
15320291 9 17909262825952796390
15347590 135 11743543432430828133
15352257 5 18341333306430747194
15361156 5 18113912545907758936
15604295 49 11026672838380695038
15728490 83 18193841680996702243
16728300 4 18057319694615702111
17492 89 17974857469161915867
18603816 31 17917136256887830095
18608769 82 18410292489839478138
208703 8 18262238940537524731
21585480 29 17985814059688019160
32027 91 18340762745030523073
4017518 198 18199183993415577159
44426701 291 17271685590668999181
44880168 125 18341325613479675594
484985 159 18341885247713056621
5081480 168 15864347025453858853
563151 74 15267067999799534166
5776283 40 10809636929872337694
57816373 69 18273218594964446324
6201460 15 17983569999111152182
8863177 126 18343017796925391416

> <PUBCHEM_SHAPE_MULTIPOLES>
663.06
20.08
4.95
1.9
47.45
0.44
0.71
19.37
-2.06
-1.46
1.68
-3.06
0.14
-1.57

> <PUBCHEM_SHAPE_SELFOVERLAP>
1436.45

> <PUBCHEM_SHAPE_VOLUME>
350.7

> <PUBCHEM_COORDINATE_TYPE>
2
5
10

$$$$
