26745299
  -OEChem-12032416183D

 52 55  0     1  0  0  0  0  0999 V2000
   -0.2071   -6.1883   -1.0797 Cl  0  0  0  0  0  0  0  0  0  0  0  0
    0.3502    1.6283   -1.7989 O   0  0  0  0  0  0  0  0  0  0  0  0
   -5.9642   -0.2372    0.3182 O   0  0  0  0  0  0  0  0  0  0  0  0
    1.7803    0.0791    0.2118 N   0  0  1  0  0  0  0  0  0  0  0  0
    5.4832    0.0571    0.7750 N   0  0  0  0  0  0  0  0  0  0  0  0
    5.4500    2.0137   -0.3071 N   0  0  0  0  0  0  0  0  0  0  0  0
   -0.3814    2.7510    0.1048 N   0  0  0  0  0  0  0  0  0  0  0  0
    1.6994    1.5674    0.1694 C   0  0  1  0  0  0  0  0  0  0  0  0
    2.9307    2.2303   -0.5183 C   0  0  0  0  0  0  0  0  0  0  0  0
    2.9702   -0.3931    0.9761 C   0  0  0  0  0  0  0  0  0  0  0  0
    4.1729    0.3622    0.5663 C   0  0  0  0  0  0  0  0  0  0  0  0
    4.1783    1.5654   -0.0910 C   0  0  0  0  0  0  0  0  0  0  0  0
    0.5794   -0.5306    0.7957 C   0  0  0  0  0  0  0  0  0  0  0  0
    0.4936    1.9663   -0.6268 C   0  0  0  0  0  0  0  0  0  0  0  0
    0.3826   -1.9438    0.3282 C   0  0  0  0  0  0  0  0  0  0  0  0
    6.2151    1.0830    0.2295 C   0  0  0  0  0  0  0  0  0  0  0  0
   -1.6090    3.2846   -0.4397 C   0  0  0  0  0  0  0  0  0  0  0  0
   -0.3649   -2.2001   -0.8213 C   0  0  0  0  0  0  0  0  0  0  0  0
    0.9472   -3.0002    1.0428 C   0  0  0  0  0  0  0  0  0  0  0  0
   -2.7661    2.3494   -0.2388 C   0  0  0  0  0  0  0  0  0  0  0  0
   -0.5481   -3.5126   -1.2559 C   0  0  0  0  0  0  0  0  0  0  0  0
    0.7642   -4.3129    0.6083 C   0  0  0  0  0  0  0  0  0  0  0  0
    0.0165   -4.5691   -0.5410 C   0  0  0  0  0  0  0  0  0  0  0  0
   -3.4663    1.8585   -1.3409 C   0  0  0  0  0  0  0  0  0  0  0  0
   -3.1408    1.9711    1.0504 C   0  0  0  0  0  0  0  0  0  0  0  0
   -4.5411    0.9895   -1.1537 C   0  0  0  0  0  0  0  0  0  0  0  0
   -4.2157    1.1022    1.2377 C   0  0  0  0  0  0  0  0  0  0  0  0
   -4.9158    0.6113    0.1356 C   0  0  0  0  0  0  0  0  0  0  0  0
   -6.2933   -0.5824    1.6631 C   0  0  0  0  0  0  0  0  0  0  0  0
    1.6341    1.9414    1.2007 H   0  0  0  0  0  0  0  0  0  0  0  0
    2.8616    2.1622   -1.6112 H   0  0  0  0  0  0  0  0  0  0  0  0
    2.9634    3.2963   -0.2638 H   0  0  0  0  0  0  0  0  0  0  0  0
    3.1527   -1.4533    0.7754 H   0  0  0  0  0  0  0  0  0  0  0  0
    2.8270   -0.2596    2.0560 H   0  0  0  0  0  0  0  0  0  0  0  0
   -0.3365    0.0053    0.5217 H   0  0  0  0  0  0  0  0  0  0  0  0
    0.5908   -0.4854    1.8938 H   0  0  0  0  0  0  0  0  0  0  0  0
    5.8510   -0.7611    1.2425 H   0  0  0  0  0  0  0  0  0  0  0  0
    7.2955    1.0885    0.2579 H   0  0  0  0  0  0  0  0  0  0  0  0
   -0.1734    2.9647    1.0756 H   0  0  0  0  0  0  0  0  0  0  0  0
   -1.8128    4.2355    0.0652 H   0  0  0  0  0  0  0  0  0  0  0  0
   -1.4563    3.5027   -1.5029 H   0  0  0  0  0  0  0  0  0  0  0  0
   -0.8088   -1.3860   -1.3883 H   0  0  0  0  0  0  0  0  0  0  0  0
    1.5209   -2.8190    1.9477 H   0  0  0  0  0  0  0  0  0  0  0  0
   -1.1324   -3.6973   -2.1536 H   0  0  0  0  0  0  0  0  0  0  0  0
    1.2078   -5.1264    1.1765 H   0  0  0  0  0  0  0  0  0  0  0  0
   -3.1851    2.1433   -2.3512 H   0  0  0  0  0  0  0  0  0  0  0  0
   -2.6060    2.3493    1.9177 H   0  0  0  0  0  0  0  0  0  0  0  0
   -5.0824    0.6098   -2.0160 H   0  0  0  0  0  0  0  0  0  0  0  0
   -4.4533    0.8500    2.2655 H   0  0  0  0  0  0  0  0  0  0  0  0
   -7.1496   -1.2636    1.6215 H   0  0  0  0  0  0  0  0  0  0  0  0
   -6.6101    0.2947    2.2376 H   0  0  0  0  0  0  0  0  0  0  0  0
   -5.4764   -1.1252    2.1506 H   0  0  0  0  0  0  0  0  0  0  0  0
  1 23  1  0  0  0  0
  2 14  2  0  0  0  0
  3 28  1  0  0  0  0
  3 29  1  0  0  0  0
  4  8  1  0  0  0  0
  4 10  1  0  0  0  0
  4 13  1  0  0  0  0
  5 11  1  0  0  0  0
  5 16  1  0  0  0  0
  5 37  1  0  0  0  0
  6 12  1  0  0  0  0
  6 16  2  0  0  0  0
  7 14  1  0  0  0  0
  7 17  1  0  0  0  0
  7 39  1  0  0  0  0
  8  9  1  0  0  0  0
  8 14  1  0  0  0  0
  8 30  1  0  0  0  0
  9 12  1  0  0  0  0
  9 31  1  0  0  0  0
  9 32  1  0  0  0  0
 10 11  1  0  0  0  0
 10 33  1  0  0  0  0
 10 34  1  0  0  0  0
 11 12  2  0  0  0  0
 13 15  1  0  0  0  0
 13 35  1  0  0  0  0
 13 36  1  0  0  0  0
 15 18  2  0  0  0  0
 15 19  1  0  0  0  0
 16 38  1  0  0  0  0
 17 20  1  0  0  0  0
 17 40  1  0  0  0  0
 17 41  1  0  0  0  0
 18 21  1  0  0  0  0
 18 42  1  0  0  0  0
 19 22  2  0  0  0  0
 19 43  1  0  0  0  0
 20 24  2  0  0  0  0
 20 25  1  0  0  0  0
 21 23  2  0  0  0  0
 21 44  1  0  0  0  0
 22 23  1  0  0  0  0
 22 45  1  0  0  0  0
 24 26  1  0  0  0  0
 24 46  1  0  0  0  0
 25 27  2  0  0  0  0
 25 47  1  0  0  0  0
 26 28  2  0  0  0  0
 26 48  1  0  0  0  0
 27 28  1  0  0  0  0
 27 49  1  0  0  0  0
 29 50  1  0  0  0  0
 29 51  1  0  0  0  0
 29 52  1  0  0  0  0
M  END
> <PUBCHEM_COMPOUND_CID>
26745299

> <PUBCHEM_CONFORMER_RMSD>
1

> <PUBCHEM_CONFORMER_DIVERSEORDER>
2
64
38
81
34
78
73
76
83
56
62
50
21
15
68
45
42
75
82
65
31
51
5
11
47
79
13
80
84
33
3
36
72
46
43
53
69
39
29
10
54
4
55
70
85
32
17
87
25
60
24
71
44
58
86
19
28
63
37
61
27
30
35
9
40
12
48
57
18
74
59
23
49
7
26
41
22
16
14
67
88
8
20
77
1
6
52
66

> <PUBCHEM_MMFF94_PARTIAL_CHARGES>
40
1 -0.18
10 0.45
11 -0.33
12 0.05
13 0.41
14 0.57
15 -0.14
16 0.04
17 0.44
18 -0.15
19 -0.15
2 -0.57
20 -0.14
21 -0.15
22 -0.15
23 0.18
24 -0.15
25 -0.15
26 -0.15
27 -0.15
28 0.08
29 0.28
3 -0.36
37 0.27
38 0.15
39 0.37
4 -0.81
42 0.15
43 0.15
44 0.15
45 0.15
46 0.15
47 0.15
48 0.15
49 0.15
5 0.03
6 -0.57
7 -0.73
8 0.33
9 0.18

> <PUBCHEM_EFFECTIVE_ROTOR_COUNT>
7.8

> <PUBCHEM_PHARMACOPHORE_FEATURES>
10
1 2 acceptor
1 3 acceptor
1 4 cation
1 5 donor
1 7 donor
3 5 6 16 cation
5 5 6 11 12 16 rings
6 15 18 19 21 22 23 rings
6 20 24 25 26 27 28 rings
6 4 8 9 10 11 12 rings

> <PUBCHEM_HEAVY_ATOM_COUNT>
29

> <PUBCHEM_ATOM_DEF_STEREO_COUNT>
1

> <PUBCHEM_ATOM_UDEF_STEREO_COUNT>
0

> <PUBCHEM_BOND_DEF_STEREO_COUNT>
0

> <PUBCHEM_BOND_UDEF_STEREO_COUNT>
0

> <PUBCHEM_ISOTOPIC_ATOM_COUNT>
0

> <PUBCHEM_COMPONENT_COUNT>
1

> <PUBCHEM_CACTVS_TAUTO_COUNT>
4

> <PUBCHEM_CONFORMER_ID>
019819D300000002

> <PUBCHEM_MMFF94_ENERGY>
78.2502

> <PUBCHEM_FEATURE_SELFOVERLAP>
50.847

> <PUBCHEM_SHAPE_FINGERPRINT>
10074138 170 18121753253530124082
1100329 8 18266457804959885548
11014199 57 17546443844182538034
11115154 58 16837091684398536479
11135926 11 18265886978585069901
11136131 41 18116419359420982290
11421498 54 17917152684816373889
11445158 3 17749956677673408133
11488393 25 18049442539510180810
12047536 79 17840899304038480785
12788726 201 17832155183265384614
12969540 37 17831301601264510734
14363568 33 17982184313838433655
14790565 3 18410007732832760236
14863182 85 18336842917568696525
14866123 147 18338507642851171414
15297060 5 18202005451610591251
17138139 8 17770464777286571063
18681886 176 18260826021104815104
19591789 44 18338229350407959596
20028762 73 18341894103792975223
20197701 30 18334288752120897072
20587220 17 17554650255865395553
20775438 99 16112284913327729615
21133410 90 17558002907288718891
21344244 181 18271823293513524326
21365058 27 18342465841323564470
21583282 1 17170409673197707868
22956985 138 17973163920454682882
23559900 14 17760637079932311313
255183 313 18337094753250280648
3383291 50 18340763738096389610
3737641 26 18198069071228858457
4280585 95 17110710177612726890
4403749 210 18335685153411111852
4461854 278 18266478649227581427
474229 33 18335419058437500968
6442390 28 18413103944717854552
6669772 16 18271528607254516366

> <PUBCHEM_SHAPE_MULTIPOLES>
567.01
11.64
6.54
1.32
2.27
13.46
-0.06
-9.15
3.5
-0.65
-2.33
1.1
0.27
-0.05

> <PUBCHEM_SHAPE_SELFOVERLAP>
1218.537

> <PUBCHEM_SHAPE_VOLUME>
314.5

> <PUBCHEM_COORDINATE_TYPE>
2
5
10

$$$$
