45360937
  -OEChem-12032416393D

 64 67  0     1  0  0  0  0  0999 V2000
    3.8389   -1.6455   -1.4725 O   0  0  0  0  0  0  0  0  0  0  0  0
   -3.1605   -1.0942   -1.3778 O   0  0  0  0  0  0  0  0  0  0  0  0
   -9.0387    2.1693    0.1092 O   0  0  0  0  0  0  0  0  0  0  0  0
    4.9565    0.2426    0.1020 N   0  0  1  0  0  0  0  0  0  0  0  0
    1.3468    0.8420    0.1372 N   0  0  1  0  0  0  0  0  0  0  0  0
    2.0013   -1.9537   -0.1443 N   0  0  0  0  0  0  0  0  0  0  0  0
    7.8442   -0.1750   -1.1208 N   0  0  0  0  0  0  0  0  0  0  0  0
    8.2472    0.8256    0.8204 N   0  0  0  0  0  0  0  0  0  0  0  0
   -4.1568   -1.8405    0.5815 N   0  0  0  0  0  0  0  0  0  0  0  0
    2.7082    0.9251    0.7109 C   0  0  1  0  0  0  0  0  0  0  0  0
    3.6580   -0.2977    0.5463 C   0  0  1  0  0  0  0  0  0  0  0  0
    3.5598    2.0722    0.1358 C   0  0  0  0  0  0  0  0  0  0  0  0
    4.9784    1.6558    0.4623 C   0  0  0  0  0  0  0  0  0  0  0  0
    0.4847   -0.2093    0.7459 C   0  0  2  0  0  0  0  0  0  0  0  0
    3.1971   -1.3413   -0.4679 C   0  0  0  0  0  0  0  0  0  0  0  0
    1.1828   -1.5622    0.9861 C   0  0  0  0  0  0  0  0  0  0  0  0
    6.0992   -0.4799    0.6462 C   0  0  0  0  0  0  0  0  0  0  0  0
   -0.7498   -0.4752   -0.1412 C   0  0  0  0  0  0  0  0  0  0  0  0
    0.6733    2.1505    0.1951 C   0  0  0  0  0  0  0  0  0  0  0  0
   -1.8891   -1.0469    0.6821 C   0  0  0  0  0  0  0  0  0  0  0  0
    7.4030    0.0741    0.1490 C   0  0  0  0  0  0  0  0  0  0  0  0
   -3.1153   -1.3179   -0.1711 C   0  0  0  0  0  0  0  0  0  0  0  0
    9.0461    0.4580   -1.2685 C   0  0  0  0  0  0  0  0  0  0  0  0
    9.2737    1.0683   -0.0577 C   0  0  0  0  0  0  0  0  0  0  0  0
   -5.4331   -2.1818   -0.0007 C   0  0  0  0  0  0  0  0  0  0  0  0
   -6.3912   -1.0263    0.0288 C   0  0  0  0  0  0  0  0  0  0  0  0
   -7.0109   -0.6638    1.2249 C   0  0  0  0  0  0  0  0  0  0  0  0
   -6.6613   -0.3149   -1.1402 C   0  0  0  0  0  0  0  0  0  0  0  0
   -7.9008    0.4099    1.2518 C   0  0  0  0  0  0  0  0  0  0  0  0
   -7.5513    0.7588   -1.1133 C   0  0  0  0  0  0  0  0  0  0  0  0
   -8.1710    1.1211    0.0827 C   0  0  0  0  0  0  0  0  0  0  0  0
   -9.2692    2.8526   -1.1222 C   0  0  0  0  0  0  0  0  0  0  0  0
    2.6153    1.1177    1.7912 H   0  0  0  0  0  0  0  0  0  0  0  0
    3.7703   -0.7907    1.5210 H   0  0  0  0  0  0  0  0  0  0  0  0
    3.4318    2.1516   -0.9521 H   0  0  0  0  0  0  0  0  0  0  0  0
    3.3168    3.0404    0.5857 H   0  0  0  0  0  0  0  0  0  0  0  0
    5.1818    1.8110    1.5296 H   0  0  0  0  0  0  0  0  0  0  0  0
    5.6962    2.2344   -0.1276 H   0  0  0  0  0  0  0  0  0  0  0  0
    0.1462    0.1519    1.7273 H   0  0  0  0  0  0  0  0  0  0  0  0
    1.8085   -1.5132    1.8831 H   0  0  0  0  0  0  0  0  0  0  0  0
    0.4770   -2.3787    1.1603 H   0  0  0  0  0  0  0  0  0  0  0  0
    6.0457   -1.5382    0.3611 H   0  0  0  0  0  0  0  0  0  0  0  0
    6.1010   -0.4495    1.7439 H   0  0  0  0  0  0  0  0  0  0  0  0
   -1.1259    0.4240   -0.6347 H   0  0  0  0  0  0  0  0  0  0  0  0
   -0.4931   -1.1562   -0.9636 H   0  0  0  0  0  0  0  0  0  0  0  0
    1.6494   -2.6750   -0.7663 H   0  0  0  0  0  0  0  0  0  0  0  0
   -0.3336    2.1516   -0.2259 H   0  0  0  0  0  0  0  0  0  0  0  0
    1.2109    2.8977   -0.3976 H   0  0  0  0  0  0  0  0  0  0  0  0
    0.6008    2.5164    1.2261 H   0  0  0  0  0  0  0  0  0  0  0  0
   -1.6112   -1.9891    1.1643 H   0  0  0  0  0  0  0  0  0  0  0  0
   -2.1780   -0.3393    1.4689 H   0  0  0  0  0  0  0  0  0  0  0  0
    7.3690   -0.7255   -1.8237 H   0  0  0  0  0  0  0  0  0  0  0  0
    9.6085    0.4169   -2.1900 H   0  0  0  0  0  0  0  0  0  0  0  0
   10.1243    1.6704    0.2265 H   0  0  0  0  0  0  0  0  0  0  0  0
   -4.0342   -1.9757    1.5810 H   0  0  0  0  0  0  0  0  0  0  0  0
   -5.2805   -2.5382   -1.0262 H   0  0  0  0  0  0  0  0  0  0  0  0
   -5.8438   -3.0221    0.5707 H   0  0  0  0  0  0  0  0  0  0  0  0
   -6.8080   -1.2106    2.1419 H   0  0  0  0  0  0  0  0  0  0  0  0
   -6.1838   -0.5861   -2.0781 H   0  0  0  0  0  0  0  0  0  0  0  0
   -8.3804    0.6878    2.1863 H   0  0  0  0  0  0  0  0  0  0  0  0
   -7.7152    1.2678   -2.0570 H   0  0  0  0  0  0  0  0  0  0  0  0
   -9.9844    3.6559   -0.9170 H   0  0  0  0  0  0  0  0  0  0  0  0
   -9.7315    2.1954   -1.8666 H   0  0  0  0  0  0  0  0  0  0  0  0
   -8.3554    3.3262   -1.4967 H   0  0  0  0  0  0  0  0  0  0  0  0
  1 15  2  0  0  0  0
  2 22  2  0  0  0  0
  3 31  1  0  0  0  0
  3 32  1  0  0  0  0
  4 11  1  0  0  0  0
  4 13  1  0  0  0  0
  4 17  1  0  0  0  0
  5 10  1  0  0  0  0
  5 14  1  0  0  0  0
  5 19  1  0  0  0  0
  6 15  1  0  0  0  0
  6 16  1  0  0  0  0
  6 46  1  0  0  0  0
  7 21  1  0  0  0  0
  7 23  1  0  0  0  0
  7 52  1  0  0  0  0
  8 21  2  0  0  0  0
  8 24  1  0  0  0  0
  9 22  1  0  0  0  0
  9 25  1  0  0  0  0
  9 55  1  0  0  0  0
 10 11  1  0  0  0  0
 10 12  1  0  0  0  0
 10 33  1  0  0  0  0
 11 15  1  0  0  0  0
 11 34  1  0  0  0  0
 12 13  1  0  0  0  0
 12 35  1  0  0  0  0
 12 36  1  0  0  0  0
 13 37  1  0  0  0  0
 13 38  1  0  0  0  0
 14 16  1  0  0  0  0
 14 18  1  0  0  0  0
 14 39  1  0  0  0  0
 16 40  1  0  0  0  0
 16 41  1  0  0  0  0
 17 21  1  0  0  0  0
 17 42  1  0  0  0  0
 17 43  1  0  0  0  0
 18 20  1  0  0  0  0
 18 44  1  0  0  0  0
 18 45  1  0  0  0  0
 19 47  1  0  0  0  0
 19 48  1  0  0  0  0
 19 49  1  0  0  0  0
 20 22  1  0  0  0  0
 20 50  1  0  0  0  0
 20 51  1  0  0  0  0
 23 24  2  0  0  0  0
 23 53  1  0  0  0  0
 24 54  1  0  0  0  0
 25 26  1  0  0  0  0
 25 56  1  0  0  0  0
 25 57  1  0  0  0  0
 26 27  2  0  0  0  0
 26 28  1  0  0  0  0
 27 29  1  0  0  0  0
 27 58  1  0  0  0  0
 28 30  2  0  0  0  0
 28 59  1  0  0  0  0
 29 31  2  0  0  0  0
 29 60  1  0  0  0  0
 30 31  1  0  0  0  0
 30 61  1  0  0  0  0
 32 62  1  0  0  0  0
 32 63  1  0  0  0  0
 32 64  1  0  0  0  0
M  END
> <PUBCHEM_COMPOUND_CID>
45360937

> <PUBCHEM_CONFORMER_RMSD>
1.2

> <PUBCHEM_CONFORMER_DIVERSEORDER>
2
65
68
50
40
126
34
91
24
112
153
55
104
44
138
8
52
62
72
155
157
3
38
147
16
128
37
102
19
139
48
119
86
151
33
131
47
124
94
93
61
99
129
110
46
17
28
125
64
136
123
150
20
117
54
89
156
32
109
21
79
12
107
130
42
36
41
27
149
63
144
76
145
120
127
114
96
75
90
57
116
148
78
83
154
84
140
80
82
6
146
14
67
25
108
49
133
39
58
59
10
29
35
74
66
118
106
152
95
71
137
22
142
88
31
132
92
70
134
158
5
15
141
97
56
23
103
53
81
60
1
111
101
11
18
115
69
73
135
100
122
98
13
45
87
85
121
105
26
4
77
30
43
113
51
7
143
9

> <PUBCHEM_MMFF94_PARTIAL_CHARGES>
39
1 -0.57
10 0.27
11 0.33
13 0.27
14 0.27
15 0.57
16 0.3
17 0.45
19 0.27
2 -0.57
20 0.06
21 0.01
22 0.57
23 -0.3
24 0.08
25 0.44
26 -0.14
27 -0.15
28 -0.15
29 -0.15
3 -0.36
30 -0.15
31 0.08
32 0.28
4 -0.81
46 0.37
5 -0.81
52 0.27
53 0.15
54 0.15
55 0.37
58 0.15
59 0.15
6 -0.73
60 0.15
61 0.15
7 0.03
8 -0.57
9 -0.73

> <PUBCHEM_EFFECTIVE_ROTOR_COUNT>
10.4

> <PUBCHEM_PHARMACOPHORE_FEATURES>
13
1 1 acceptor
1 2 acceptor
1 3 acceptor
1 4 cation
1 5 cation
1 6 donor
1 7 donor
1 9 donor
3 7 8 21 cation
5 4 10 11 12 13 rings
5 7 8 21 23 24 rings
6 26 27 28 29 30 31 rings
7 5 6 10 11 14 15 16 rings

> <PUBCHEM_HEAVY_ATOM_COUNT>
32

> <PUBCHEM_ATOM_DEF_STEREO_COUNT>
3

> <PUBCHEM_ATOM_UDEF_STEREO_COUNT>
0

> <PUBCHEM_BOND_DEF_STEREO_COUNT>
0

> <PUBCHEM_BOND_UDEF_STEREO_COUNT>
0

> <PUBCHEM_ISOTOPIC_ATOM_COUNT>
0

> <PUBCHEM_COMPONENT_COUNT>
1

> <PUBCHEM_CACTVS_TAUTO_COUNT>
6

> <PUBCHEM_CONFORMER_ID>
02B4272900000002

> <PUBCHEM_MMFF94_ENERGY>
80.7548

> <PUBCHEM_FEATURE_SELFOVERLAP>
66.01

> <PUBCHEM_SHAPE_FINGERPRINT>
10066227 112 18341892988003376227
10580692 12 18410855465093178659
106641 1 11169911693448459006
10674148 151 18259981604447489984
11115154 58 18186805790474424116
11181472 205 18261112929166701608
12089408 11 17967248719853831610
12539765 74 18187373155606759486
12664476 115 17967811653165278621
12838862 33 17489580165474806586
13165053 371 18266176318254385636
14117953 113 18059861679635989148
14400156 96 13110665182901978266
14428016 248 17603592949732219452
14856354 85 15791734135949078539
15131766 46 14331407944774886490
15142383 8 18413386531679560219
15183329 4 17988922267622700419
15247644 1 11240005547204445980
15301273 46 17918276472116004418
15439362 3 17828487200176368908
15461852 350 13542465354437498451
15840311 113 12103842376862834178
16087824 20 18338797819785415449
1754911 235 17489587861470346304
18335252 98 11169908377312070881
21362267 2 17488449941164314840
21585482 111 18188767246325109085
21792934 111 18272644655233804080
22224240 67 9079122150658193552
23576562 1 16772932844681923601
249057 3 18130507526128774462
335352 9 18410854403650940942
3633792 109 17775573026441458522
4017518 198 16271929328470939687
4073 2 18115027532165923115
5381727 24 8862951559432008940
59682541 35 11530483345795534988
6009941 240 18334579062246145811
6691757 9 14692577666944250303

> <PUBCHEM_SHAPE_MULTIPOLES>
611.05
33.95
2.3
1.16
11.51
0.73
0.18
16.38
4.78
3.6
0.2
0.48
-0.07
1.39

> <PUBCHEM_SHAPE_SELFOVERLAP>
1290.504

> <PUBCHEM_SHAPE_VOLUME>
342

> <PUBCHEM_COORDINATE_TYPE>
2
5
10

$$$$
