26743404
  -OEChem-12032416183D

 54 57  0     1  0  0  0  0  0999 V2000
   -3.1052   -2.3139   -0.7896 O   0  0  0  0  0  0  0  0  0  0  0  0
   -8.3857    1.1220   -0.1992 O   0  0  0  0  0  0  0  0  0  0  0  0
   -2.3600   -0.7320    0.7350 N   0  0  0  0  0  0  0  0  0  0  0  0
    4.2183    0.6151   -0.1763 N   0  0  0  0  0  0  0  0  0  0  0  0
    3.9609    1.9003   -0.4732 N   0  0  0  0  0  0  0  0  0  0  0  0
    0.6648    0.5814    0.7128 C   0  0  2  0  0  0  0  0  0  0  0  0
   -0.0336   -0.5170   -0.1119 C   0  0  0  0  0  0  0  0  0  0  0  0
   -0.9949   -1.2315    0.8528 C   0  0  1  0  0  0  0  0  0  0  0  0
    2.0950    0.8266    0.2907 C   0  0  0  0  0  0  0  0  0  0  0  0
    0.5027    0.0757    2.1164 C   0  0  0  0  0  0  0  0  0  0  0  0
   -0.4054   -0.9033    2.1890 C   0  0  0  0  0  0  0  0  0  0  0  0
    3.1340   -0.0718    0.2850 C   0  0  0  0  0  0  0  0  0  0  0  0
    2.6622    2.0236   -0.1860 C   0  0  0  0  0  0  0  0  0  0  0  0
    3.1812   -1.4966    0.6716 C   0  0  0  0  0  0  0  0  0  0  0  0
    1.9960    3.3226   -0.3867 C   0  0  0  0  0  0  0  0  0  0  0  0
   -3.3103   -1.3263   -0.0888 C   0  0  0  0  0  0  0  0  0  0  0  0
    5.5063    0.1087   -0.3530 C   0  0  0  0  0  0  0  0  0  0  0  0
   -4.6481   -0.6812   -0.1174 C   0  0  0  0  0  0  0  0  0  0  0  0
    5.7223   -0.9595   -1.2236 C   0  0  0  0  0  0  0  0  0  0  0  0
    6.5782    0.6714    0.3397 C   0  0  0  0  0  0  0  0  0  0  0  0
   -5.4564   -0.8027   -1.2479 C   0  0  0  0  0  0  0  0  0  0  0  0
   -5.0960    0.0461    0.9853 C   0  0  0  0  0  0  0  0  0  0  0  0
    7.0102   -1.4650   -1.4014 C   0  0  0  0  0  0  0  0  0  0  0  0
    7.8661    0.1661    0.1619 C   0  0  0  0  0  0  0  0  0  0  0  0
    8.0821   -0.9022   -0.7087 C   0  0  0  0  0  0  0  0  0  0  0  0
   -6.7125   -0.1968   -1.2755 C   0  0  0  0  0  0  0  0  0  0  0  0
   -6.3520    0.6520    0.9577 C   0  0  0  0  0  0  0  0  0  0  0  0
   -7.1603    0.5305   -0.1726 C   0  0  0  0  0  0  0  0  0  0  0  0
   -9.1600    0.9580   -1.3865 C   0  0  0  0  0  0  0  0  0  0  0  0
    0.0960    1.5163    0.6274 H   0  0  0  0  0  0  0  0  0  0  0  0
   -0.5483   -0.0884   -0.9805 H   0  0  0  0  0  0  0  0  0  0  0  0
    0.6811   -1.2477   -0.5099 H   0  0  0  0  0  0  0  0  0  0  0  0
   -0.9860   -2.3109    0.6678 H   0  0  0  0  0  0  0  0  0  0  0  0
    1.0248    0.4800    2.9723 H   0  0  0  0  0  0  0  0  0  0  0  0
   -0.6954   -1.3924    3.1082 H   0  0  0  0  0  0  0  0  0  0  0  0
   -2.5744    0.1348    1.2173 H   0  0  0  0  0  0  0  0  0  0  0  0
    3.1094   -2.1386   -0.2121 H   0  0  0  0  0  0  0  0  0  0  0  0
    4.1058   -1.7418    1.2046 H   0  0  0  0  0  0  0  0  0  0  0  0
    2.3637   -1.7725    1.3411 H   0  0  0  0  0  0  0  0  0  0  0  0
    1.5982    3.7004    0.5608 H   0  0  0  0  0  0  0  0  0  0  0  0
    2.6832    4.0769   -0.7844 H   0  0  0  0  0  0  0  0  0  0  0  0
    1.1653    3.2233   -1.0930 H   0  0  0  0  0  0  0  0  0  0  0  0
    4.9040   -1.4029   -1.7855 H   0  0  0  0  0  0  0  0  0  0  0  0
    6.4276    1.5019    1.0254 H   0  0  0  0  0  0  0  0  0  0  0  0
   -5.1224   -1.3615   -2.1183 H   0  0  0  0  0  0  0  0  0  0  0  0
   -4.5112    0.1395    1.8956 H   0  0  0  0  0  0  0  0  0  0  0  0
    7.1791   -2.2945   -2.0819 H   0  0  0  0  0  0  0  0  0  0  0  0
    8.7006    0.6037    0.7019 H   0  0  0  0  0  0  0  0  0  0  0  0
    9.0850   -1.2953   -0.8475 H   0  0  0  0  0  0  0  0  0  0  0  0
   -7.2881   -0.3301   -2.1851 H   0  0  0  0  0  0  0  0  0  0  0  0
   -6.6988    1.2118    1.8220 H   0  0  0  0  0  0  0  0  0  0  0  0
  -10.1033    1.4926   -1.2336 H   0  0  0  0  0  0  0  0  0  0  0  0
   -9.4131   -0.0935   -1.5598 H   0  0  0  0  0  0  0  0  0  0  0  0
   -8.6702    1.4154   -2.2527 H   0  0  0  0  0  0  0  0  0  0  0  0
  1 16  2  0  0  0  0
  2 28  1  0  0  0  0
  2 29  1  0  0  0  0
  3  8  1  0  0  0  0
  3 16  1  0  0  0  0
  3 36  1  0  0  0  0
  4  5  1  0  0  0  0
  4 12  1  0  0  0  0
  4 17  1  0  0  0  0
  5 13  2  0  0  0  0
  6  7  1  0  0  0  0
  6  9  1  0  0  0  0
  6 10  1  0  0  0  0
  6 30  1  0  0  0  0
  7  8  1  0  0  0  0
  7 31  1  0  0  0  0
  7 32  1  0  0  0  0
  8 11  1  0  0  0  0
  8 33  1  0  0  0  0
  9 12  2  0  0  0  0
  9 13  1  0  0  0  0
 10 11  2  0  0  0  0
 10 34  1  0  0  0  0
 11 35  1  0  0  0  0
 12 14  1  0  0  0  0
 13 15  1  0  0  0  0
 14 37  1  0  0  0  0
 14 38  1  0  0  0  0
 14 39  1  0  0  0  0
 15 40  1  0  0  0  0
 15 41  1  0  0  0  0
 15 42  1  0  0  0  0
 16 18  1  0  0  0  0
 17 19  2  0  0  0  0
 17 20  1  0  0  0  0
 18 21  2  0  0  0  0
 18 22  1  0  0  0  0
 19 23  1  0  0  0  0
 19 43  1  0  0  0  0
 20 24  2  0  0  0  0
 20 44  1  0  0  0  0
 21 26  1  0  0  0  0
 21 45  1  0  0  0  0
 22 27  2  0  0  0  0
 22 46  1  0  0  0  0
 23 25  2  0  0  0  0
 23 47  1  0  0  0  0
 24 25  1  0  0  0  0
 24 48  1  0  0  0  0
 25 49  1  0  0  0  0
 26 28  2  0  0  0  0
 26 50  1  0  0  0  0
 27 28  1  0  0  0  0
 27 51  1  0  0  0  0
 29 52  1  0  0  0  0
 29 53  1  0  0  0  0
 29 54  1  0  0  0  0
M  END
> <PUBCHEM_COMPOUND_CID>
26743404

> <PUBCHEM_CONFORMER_RMSD>
0.8

> <PUBCHEM_CONFORMER_DIVERSEORDER>
1
15
6
32
30
37
2
22
19
17
24
8
3
27
35
33
12
25
13
20
9
5
7
18
36
31
4
21
34
14
38
28
26
11
23
10
16
29

> <PUBCHEM_MMFF94_PARTIAL_CHARGES>
40
1 -0.57
10 -0.29
11 -0.29
12 -0.33
13 0.11
14 0.18
15 0.18
16 0.54
17 -0.02
18 0.09
19 -0.15
2 -0.36
20 -0.15
21 -0.15
22 -0.15
23 -0.15
24 -0.15
25 -0.15
26 -0.15
27 -0.15
28 0.08
29 0.28
3 -0.73
34 0.15
35 0.15
36 0.37
4 0.59
43 0.15
44 0.15
45 0.15
46 0.15
47 0.15
48 0.15
49 0.15
5 -0.71
50 0.15
51 0.15
6 0.32
8 0.44
9 -0.18

> <PUBCHEM_EFFECTIVE_ROTOR_COUNT>
6.6

> <PUBCHEM_PHARMACOPHORE_FEATURES>
8
1 1 acceptor
1 2 acceptor
1 3 donor
1 5 acceptor
5 4 5 9 12 13 rings
5 6 7 8 10 11 rings
6 17 19 20 23 24 25 rings
6 18 21 22 26 27 28 rings

> <PUBCHEM_HEAVY_ATOM_COUNT>
29

> <PUBCHEM_ATOM_DEF_STEREO_COUNT>
2

> <PUBCHEM_ATOM_UDEF_STEREO_COUNT>
0

> <PUBCHEM_BOND_DEF_STEREO_COUNT>
0

> <PUBCHEM_BOND_UDEF_STEREO_COUNT>
0

> <PUBCHEM_ISOTOPIC_ATOM_COUNT>
0

> <PUBCHEM_COMPONENT_COUNT>
1

> <PUBCHEM_CACTVS_TAUTO_COUNT>
2

> <PUBCHEM_CONFORMER_ID>
0198126C00000001

> <PUBCHEM_MMFF94_ENERGY>
92.0481

> <PUBCHEM_FEATURE_SELFOVERLAP>
40.598

> <PUBCHEM_SHAPE_FINGERPRINT>
10 15 13912322378797916311
10165383 225 16587742031704903130
10369192 42 15647052672750333707
10670039 82 18131631150473402385
10674148 151 18040150721742248984
10835480 77 18058446668269194912
11115154 58 18343868792290868920
11135609 99 11311758610558944513
11719270 70 16415483740316128926
11828422 8 17684947078035637204
12236239 1 17775009007436611498
12664476 115 17168139040737847341
13177829 20 10665228150806199151
13540713 4 17752499921283182336
13692114 37 10231743501349738804
13914758 101 18202289078349787432
14117953 113 18272097080646409910
14394314 77 8646502834190742567
14856354 85 15791737434025058251
14933364 13 13334735739235305150
15183329 4 18410855451612301267
15188451 53 17060345094120144890
15326923 82 11023817376163960419
15439362 3 18047475805862328236
15706992 2 11674890983497501326
15728490 51 8430308031304813201
15849732 13 17703790327727337604
18335252 114 18411414016799927765
18608769 82 16370730348458337507
19377110 9 10665222644863990431
21033648 29 17095802247502201585
21585482 111 17677885731442506565
22079108 93 8935001443691728664
22224240 67 10375869671693302492
23524908 199 18271240517764107471
23559900 14 18201153372853221232
249057 3 18411983580691520975
29717793 49 18202570592255490540
3004659 81 18202561782660706474
3009799 131 17131834278462422714
3103668 31 18115585933490996076
335352 9 18409171025953201308
3633792 109 18202285797063513890
3663271 9 10737271442782308501
4340502 62 9079118860613232408
474113 269 17203332157353830478
5758199 1 8142084256401452900
59682541 35 9367339340806658815
5969126 39 14261355726264069051
59755656 215 18113615673082732926
6004065 56 13614237100678741299
6009941 240 18412266163670164927
6081469 158 17846780685585878278
9663363 56 18409166607296899828
9689198 14 14851609881754675854
9953998 17 12757153472666442801

> <PUBCHEM_SHAPE_MULTIPOLES>
570.12
26.43
1.98
1.46
18.82
1.13
-0.39
1.39
11.45
-1.25
0.38
0.74
-0.35
0.68

> <PUBCHEM_SHAPE_SELFOVERLAP>
1240.63

> <PUBCHEM_SHAPE_VOLUME>
313.4

> <PUBCHEM_COORDINATE_TYPE>
2
5
10

$$$$
