11882990
  -OEChem-12032416313D

 82 86  0     1  0  0  0  0  0999 V2000
   -0.7014    2.6891    0.2021 S   0  0  0  0  0  0  0  0  0  0  0  0
   -8.3282    1.0667   -0.7066 O   0  0  0  0  0  0  0  0  0  0  0  0
   -7.8284    2.8242    0.8445 O   0  0  0  0  0  0  0  0  0  0  0  0
   -1.0604   -2.3786   -1.4510 O   0  0  0  0  0  0  0  0  0  0  0  0
    2.3511   -0.8052   -0.1781 O   0  0  0  0  0  0  0  0  0  0  0  0
    2.1745   -4.1926   -0.9149 O   0  0  0  0  0  0  0  0  0  0  0  0
   -0.4533    0.1273   -0.0594 N   0  0  0  0  0  0  0  0  0  0  0  0
   -1.0034   -3.9114    0.2951 N   0  0  0  0  0  0  0  0  0  0  0  0
    1.5835    1.4109    0.0553 N   0  0  0  0  0  0  0  0  0  0  0  0
   -4.2774   -0.1539    0.3468 C   0  0  2  0  0  0  0  0  0  0  0  0
   -4.5318    1.2703   -0.3183 C   0  0  1  0  0  0  0  0  0  0  0  0
   -6.0176    1.7999   -0.3298 C   0  0  1  0  0  0  0  0  0  0  0  0
   -2.8444   -0.6732   -0.1330 C   0  0  1  0  0  0  0  0  0  0  0  0
   -5.3520   -1.1550   -0.1513 C   0  0  0  0  0  0  0  0  0  0  0  0
   -6.9633    0.6619   -0.8077 C   0  0  1  0  0  0  0  0  0  0  0  0
   -3.4952    2.3216    0.1748 C   0  0  0  0  0  0  0  0  0  0  0  0
   -6.7787   -0.6381   -0.0327 C   0  0  0  0  0  0  0  0  0  0  0  0
   -4.3178   -0.1107    1.8943 C   0  0  0  0  0  0  0  0  0  0  0  0
   -1.8055    0.4116   -0.0092 C   0  0  0  0  0  0  0  0  0  0  0  0
   -6.4987    2.3875    1.0153 C   0  0  0  0  0  0  0  0  0  0  0  0
   -6.1341    2.9604   -1.3583 C   0  0  0  0  0  0  0  0  0  0  0  0
   -2.1192    1.7503    0.1096 C   0  0  0  0  0  0  0  0  0  0  0  0
   -2.3806   -1.9742    0.5359 C   0  0  0  0  0  0  0  0  0  0  0  0
   -1.4170   -2.7467   -0.3350 C   0  0  0  0  0  0  0  0  0  0  0  0
    0.2234    1.2499    0.0500 C   0  0  0  0  0  0  0  0  0  0  0  0
   -0.0820   -4.8491   -0.3047 C   0  0  0  0  0  0  0  0  0  0  0  0
    2.5501    0.3984   -0.0564 C   0  0  0  0  0  0  0  0  0  0  0  0
    1.3194   -4.5008    0.0950 C   0  0  0  0  0  0  0  0  0  0  0  0
    3.9625    0.8636   -0.0522 C   0  0  0  0  0  0  0  0  0  0  0  0
    1.9585   -4.4212    1.3105 C   0  0  0  0  0  0  0  0  0  0  0  0
    4.3036    2.0528    0.5921 C   0  0  0  0  0  0  0  0  0  0  0  0
    4.9465    0.1103   -0.6926 C   0  0  0  0  0  0  0  0  0  0  0  0
    3.2920   -4.0394    1.0292 C   0  0  0  0  0  0  0  0  0  0  0  0
    3.3728   -3.9129   -0.3380 C   0  0  0  0  0  0  0  0  0  0  0  0
    6.6124    1.7354   -0.0442 C   0  0  0  0  0  0  0  0  0  0  0  0
    5.6285    2.4887    0.5961 C   0  0  0  0  0  0  0  0  0  0  0  0
    6.2715    0.5462   -0.6886 C   0  0  0  0  0  0  0  0  0  0  0  0
    8.0288    2.2015   -0.0413 C   0  0  0  0  0  0  0  0  0  0  0  0
    8.5519    2.4312   -1.4932 C   0  0  0  0  0  0  0  0  0  0  0  0
    8.9677    1.1558    0.6367 C   0  0  0  0  0  0  0  0  0  0  0  0
    8.2916    3.5471    0.7133 C   0  0  0  0  0  0  0  0  0  0  0  0
   -4.2978    1.1095   -1.3851 H   0  0  0  0  0  0  0  0  0  0  0  0
   -2.9408   -0.8530   -1.2143 H   0  0  0  0  0  0  0  0  0  0  0  0
   -5.1648   -1.4006   -1.2051 H   0  0  0  0  0  0  0  0  0  0  0  0
   -5.2882   -2.1008    0.3984 H   0  0  0  0  0  0  0  0  0  0  0  0
   -6.7721    0.4629   -1.8706 H   0  0  0  0  0  0  0  0  0  0  0  0
   -3.5420    3.2190   -0.4511 H   0  0  0  0  0  0  0  0  0  0  0  0
   -3.7068    2.6267    1.2051 H   0  0  0  0  0  0  0  0  0  0  0  0
   -7.4686   -1.3952   -0.4272 H   0  0  0  0  0  0  0  0  0  0  0  0
   -7.0704   -0.5098    1.0155 H   0  0  0  0  0  0  0  0  0  0  0  0
   -4.1108   -1.0972    2.3236 H   0  0  0  0  0  0  0  0  0  0  0  0
   -5.2927    0.1701    2.2870 H   0  0  0  0  0  0  0  0  0  0  0  0
   -3.5792    0.5773    2.3149 H   0  0  0  0  0  0  0  0  0  0  0  0
   -6.5023    1.6585    1.8217 H   0  0  0  0  0  0  0  0  0  0  0  0
   -5.8936    3.2450    1.3247 H   0  0  0  0  0  0  0  0  0  0  0  0
   -7.1736    3.2573   -1.5372 H   0  0  0  0  0  0  0  0  0  0  0  0
   -5.5980    3.8553   -1.0255 H   0  0  0  0  0  0  0  0  0  0  0  0
   -5.7189    2.6669   -2.3294 H   0  0  0  0  0  0  0  0  0  0  0  0
   -1.8986   -1.7745    1.5013 H   0  0  0  0  0  0  0  0  0  0  0  0
   -3.2250   -2.6463    0.7194 H   0  0  0  0  0  0  0  0  0  0  0  0
   -8.8766    0.3449   -1.0584 H   0  0  0  0  0  0  0  0  0  0  0  0
   -8.1207    3.2014    1.6917 H   0  0  0  0  0  0  0  0  0  0  0  0
   -1.3459   -4.1190    1.2290 H   0  0  0  0  0  0  0  0  0  0  0  0
    1.8762    2.3815    0.1093 H   0  0  0  0  0  0  0  0  0  0  0  0
   -0.3383   -5.8491    0.0586 H   0  0  0  0  0  0  0  0  0  0  0  0
   -0.1951   -4.8312   -1.3935 H   0  0  0  0  0  0  0  0  0  0  0  0
    1.5203   -4.6133    2.2794 H   0  0  0  0  0  0  0  0  0  0  0  0
    3.5779    2.6518    1.1338 H   0  0  0  0  0  0  0  0  0  0  0  0
    4.7013   -0.8159   -1.2054 H   0  0  0  0  0  0  0  0  0  0  0  0
    4.0937   -3.8754    1.7346 H   0  0  0  0  0  0  0  0  0  0  0  0
    4.1676   -3.6444   -1.0184 H   0  0  0  0  0  0  0  0  0  0  0  0
    5.8399    3.4154    1.1181 H   0  0  0  0  0  0  0  0  0  0  0  0
    7.0171   -0.0590   -1.1962 H   0  0  0  0  0  0  0  0  0  0  0  0
    7.9314    3.1667   -2.0187 H   0  0  0  0  0  0  0  0  0  0  0  0
    8.5409    1.5081   -2.0830 H   0  0  0  0  0  0  0  0  0  0  0  0
    9.5838    2.8013   -1.4915 H   0  0  0  0  0  0  0  0  0  0  0  0
    8.9680    0.1992    0.1027 H   0  0  0  0  0  0  0  0  0  0  0  0
    8.6507    0.9590    1.6676 H   0  0  0  0  0  0  0  0  0  0  0  0
   10.0047    1.5102    0.6651 H   0  0  0  0  0  0  0  0  0  0  0  0
    8.0224    3.4724    1.7734 H   0  0  0  0  0  0  0  0  0  0  0  0
    7.7277    4.3747    0.2672 H   0  0  0  0  0  0  0  0  0  0  0  0
    9.3524    3.8229    0.6710 H   0  0  0  0  0  0  0  0  0  0  0  0
  1 22  1  0  0  0  0
  1 25  1  0  0  0  0
  2 15  1  0  0  0  0
  2 61  1  0  0  0  0
  3 20  1  0  0  0  0
  3 62  1  0  0  0  0
  4 24  2  0  0  0  0
  5 27  2  0  0  0  0
  6 28  1  0  0  0  0
  6 34  1  0  0  0  0
  7 19  1  0  0  0  0
  7 25  2  0  0  0  0
  8 24  1  0  0  0  0
  8 26  1  0  0  0  0
  8 63  1  0  0  0  0
  9 25  1  0  0  0  0
  9 27  1  0  0  0  0
  9 64  1  0  0  0  0
 10 11  1  0  0  0  0
 10 13  1  0  0  0  0
 10 14  1  0  0  0  0
 10 18  1  0  0  0  0
 11 12  1  0  0  0  0
 11 16  1  0  0  0  0
 11 42  1  0  0  0  0
 12 15  1  0  0  0  0
 12 20  1  0  0  0  0
 12 21  1  0  0  0  0
 13 19  1  0  0  0  0
 13 23  1  0  0  0  0
 13 43  1  0  0  0  0
 14 17  1  0  0  0  0
 14 44  1  0  0  0  0
 14 45  1  0  0  0  0
 15 17  1  0  0  0  0
 15 46  1  0  0  0  0
 16 22  1  0  0  0  0
 16 47  1  0  0  0  0
 16 48  1  0  0  0  0
 17 49  1  0  0  0  0
 17 50  1  0  0  0  0
 18 51  1  0  0  0  0
 18 52  1  0  0  0  0
 18 53  1  0  0  0  0
 19 22  2  0  0  0  0
 20 54  1  0  0  0  0
 20 55  1  0  0  0  0
 21 56  1  0  0  0  0
 21 57  1  0  0  0  0
 21 58  1  0  0  0  0
 23 24  1  0  0  0  0
 23 59  1  0  0  0  0
 23 60  1  0  0  0  0
 26 28  1  0  0  0  0
 26 65  1  0  0  0  0
 26 66  1  0  0  0  0
 27 29  1  0  0  0  0
 28 30  2  0  0  0  0
 29 31  2  0  0  0  0
 29 32  1  0  0  0  0
 30 33  1  0  0  0  0
 30 67  1  0  0  0  0
 31 36  1  0  0  0  0
 31 68  1  0  0  0  0
 32 37  2  0  0  0  0
 32 69  1  0  0  0  0
 33 34  2  0  0  0  0
 33 70  1  0  0  0  0
 34 71  1  0  0  0  0
 35 36  2  0  0  0  0
 35 37  1  0  0  0  0
 35 38  1  0  0  0  0
 36 72  1  0  0  0  0
 37 73  1  0  0  0  0
 38 39  1  0  0  0  0
 38 40  1  0  0  0  0
 38 41  1  0  0  0  0
 39 74  1  0  0  0  0
 39 75  1  0  0  0  0
 39 76  1  0  0  0  0
 40 77  1  0  0  0  0
 40 78  1  0  0  0  0
 40 79  1  0  0  0  0
 41 80  1  0  0  0  0
 41 81  1  0  0  0  0
 41 82  1  0  0  0  0
M  END
> <PUBCHEM_COMPOUND_CID>
11882990

> <PUBCHEM_CONFORMER_RMSD>
1.2

> <PUBCHEM_CONFORMER_DIVERSEORDER>
1
22
19
15
17
11
9
13
2
5
10
23
16
21
14
12
8
18
3
20
4
6
7

> <PUBCHEM_MMFF94_PARTIAL_CHARGES>
42
1 -0.08
13 0.18
15 0.28
16 0.18
19 0.05
2 -0.68
20 0.28
22 -0.14
23 0.06
24 0.57
25 0.44
26 0.48
27 0.54
28 -0.04
29 0.09
3 -0.68
30 -0.15
31 -0.15
32 -0.15
33 -0.15
34 -0.01
35 -0.14
36 -0.15
37 -0.15
38 0.14
4 -0.57
5 -0.57
6 -0.28
61 0.4
62 0.4
63 0.37
64 0.37
67 0.15
68 0.15
69 0.15
7 -0.57
70 0.15
71 0.15
72 0.15
73 0.15
8 -0.73
9 -0.49

> <PUBCHEM_EFFECTIVE_ROTOR_COUNT>
11.2

> <PUBCHEM_PHARMACOPHORE_FEATURES>
15
1 2 acceptor
1 2 donor
1 3 acceptor
1 3 donor
1 4 acceptor
1 5 acceptor
1 6 acceptor
1 8 donor
1 9 donor
4 38 39 40 41 hydrophobe
5 1 7 19 22 25 rings
5 6 28 30 33 34 rings
6 10 11 12 14 15 17 rings
6 10 11 13 16 19 22 rings
6 29 31 32 35 36 37 rings

> <PUBCHEM_HEAVY_ATOM_COUNT>
41

> <PUBCHEM_ATOM_DEF_STEREO_COUNT>
5

> <PUBCHEM_ATOM_UDEF_STEREO_COUNT>
0

> <PUBCHEM_BOND_DEF_STEREO_COUNT>
0

> <PUBCHEM_BOND_UDEF_STEREO_COUNT>
0

> <PUBCHEM_ISOTOPIC_ATOM_COUNT>
0

> <PUBCHEM_COMPONENT_COUNT>
1

> <PUBCHEM_CACTVS_TAUTO_COUNT>
6

> <PUBCHEM_CONFORMER_ID>
00B551EE00000001

> <PUBCHEM_MMFF94_ENERGY>
122.4372

> <PUBCHEM_FEATURE_SELFOVERLAP>
76.269

> <PUBCHEM_SHAPE_FINGERPRINT>
10050765 1 18122343471719898981
10190206 1 18198046161989834215
10290309 65 18336820897498651860
10864689 126 18341333392382866816
10904742 90 18410008858230028394
10940486 97 18118687866398628604
11007060 377 18202010957537138016
11062273 19 18123753059218004566
11135609 187 18410855447733825057
11135926 11 18335693944886536860
11136131 41 18261106340476893258
11719270 70 18410006625057940344
12013929 2 18202847670146416072
12522641 33 18408602547923267183
14040222 383 18339920540983098464
14394314 77 18411421708970576569
14856354 85 16443343225775126137
15001296 14 18265330617116742171
15351339 4 18272654507276923048
15400415 2 18410855499205347832
15439362 3 18337671902497464179
15890870 6 18410854386428626932
15927050 60 18341045302466066951
16067689 302 18412829067629101335
18365409 1 18267024036832447486
19053607 189 18339629071237883432
20609170 92 18115014214294920533
20771845 165 18042962074216949557
21133665 82 18411139165010849630
21360443 120 18408040710435122743
22311459 1 18410573985437333632
23516275 137 18188787054782532674
23559900 14 18050838932847828987
249057 3 18337673117552079804
3383291 50 18339364196658184315
3411729 13 18335983081979895315
4017518 198 18271529779527406686
4073 2 18408047303499812785
4403749 210 18265051521641298736
4516262 110 18409440372105954677
4625314 4 18340208609500376100
5265222 85 18192998334071153936
6371380 46 18271803579344766024
6669772 16 18410575054656752751
9896288 288 18191028013260693554
99344 41 18410292501664089733

> <PUBCHEM_SHAPE_MULTIPOLES>
803.32
24.47
6.31
1.08
17.93
9.9
-0.06
-29.86
1.23
4.55
-0.4
-0.14
0
-0.01

> <PUBCHEM_SHAPE_SELFOVERLAP>
1711.745

> <PUBCHEM_SHAPE_VOLUME>
452.1

> <PUBCHEM_COORDINATE_TYPE>
2
5
10

$$$$
