75536699
  -OEChem-12032416303D

 53 55  0     1  0  0  0  0  0999 V2000
    3.5063    1.9701   -0.1013 S   0  0  0  0  0  0  0  0  0  0  0  0
   -0.7384    0.8290   -1.3454 O   0  0  0  0  0  0  0  0  0  0  0  0
   -1.4346    0.5704    2.1694 O   0  0  0  0  0  0  0  0  0  0  0  0
    3.4466    2.4990    1.2480 O   0  0  0  0  0  0  0  0  0  0  0  0
    4.1616    2.7250   -1.1522 O   0  0  0  0  0  0  0  0  0  0  0  0
   -3.5212   -0.8448    0.2935 N   0  0  0  0  0  0  0  0  0  0  0  0
    1.9382    1.5548   -0.6137 N   0  0  0  0  0  0  0  0  0  0  0  0
   -2.5736    0.2277    0.0374 C   0  0  1  0  0  0  0  0  0  0  0  0
   -4.8440   -0.5009   -0.2245 C   0  0  0  0  0  0  0  0  0  0  0  0
   -1.2907    0.1111    0.8394 C   0  0  1  0  0  0  0  0  0  0  0  0
   -0.3568    1.0004    0.0297 C   0  0  1  0  0  0  0  0  0  0  0  0
   -5.5394    0.4758    0.7301 C   0  0  0  0  0  0  0  0  0  0  0  0
   -5.6757   -1.7742   -0.4152 C   0  0  0  0  0  0  0  0  0  0  0  0
   -2.0404    0.2189   -1.3858 C   0  0  0  0  0  0  0  0  0  0  0  0
   -6.9566    0.7993    0.2598 C   0  0  0  0  0  0  0  0  0  0  0  0
   -7.0930   -1.4483   -0.8834 C   0  0  0  0  0  0  0  0  0  0  0  0
   -7.7849   -0.4664    0.0578 C   0  0  0  0  0  0  0  0  0  0  0  0
    1.1095    0.6468    0.2034 C   0  0  0  0  0  0  0  0  0  0  0  0
    4.2950    0.3896   -0.0325 C   0  0  0  0  0  0  0  0  0  0  0  0
    4.9500   -0.1120   -1.1572 C   0  0  0  0  0  0  0  0  0  0  0  0
    4.2597   -0.3570    1.1452 C   0  0  0  0  0  0  0  0  0  0  0  0
    5.5700   -1.3603   -1.1042 C   0  0  0  0  0  0  0  0  0  0  0  0
    4.8796   -1.6054    1.1981 C   0  0  0  0  0  0  0  0  0  0  0  0
    5.5350   -2.1071    0.0735 C   0  0  0  0  0  0  0  0  0  0  0  0
    6.1978   -3.4419    0.1301 C   0  0  0  0  0  0  0  0  0  0  0  0
   -3.0031    1.2114    0.2606 H   0  0  0  0  0  0  0  0  0  0  0  0
   -4.7568   -0.0307   -1.2130 H   0  0  0  0  0  0  0  0  0  0  0  0
   -0.9307   -0.9251    0.8602 H   0  0  0  0  0  0  0  0  0  0  0  0
   -0.5080    2.0584    0.2821 H   0  0  0  0  0  0  0  0  0  0  0  0
   -3.5789   -1.0310    1.2942 H   0  0  0  0  0  0  0  0  0  0  0  0
   -5.5928    0.0456    1.7393 H   0  0  0  0  0  0  0  0  0  0  0  0
   -4.9938    1.4204    0.8203 H   0  0  0  0  0  0  0  0  0  0  0  0
   -5.7310   -2.3347    0.5275 H   0  0  0  0  0  0  0  0  0  0  0  0
   -5.1950   -2.4332   -1.1487 H   0  0  0  0  0  0  0  0  0  0  0  0
   -1.9082   -0.7974   -1.7747 H   0  0  0  0  0  0  0  0  0  0  0  0
   -2.6764    0.7742   -2.0817 H   0  0  0  0  0  0  0  0  0  0  0  0
   -6.9098    1.3597   -0.6821 H   0  0  0  0  0  0  0  0  0  0  0  0
   -7.4494    1.4476    0.9932 H   0  0  0  0  0  0  0  0  0  0  0  0
   -7.6802   -2.3711   -0.9496 H   0  0  0  0  0  0  0  0  0  0  0  0
   -7.0546   -1.0210   -1.8930 H   0  0  0  0  0  0  0  0  0  0  0  0
   -8.7698   -0.2024   -0.3437 H   0  0  0  0  0  0  0  0  0  0  0  0
   -7.9543   -0.9496    1.0280 H   0  0  0  0  0  0  0  0  0  0  0  0
    1.2969   -0.3760   -0.1422 H   0  0  0  0  0  0  0  0  0  0  0  0
    1.3815    0.7237    1.2603 H   0  0  0  0  0  0  0  0  0  0  0  0
   -1.7554    1.4878    2.1434 H   0  0  0  0  0  0  0  0  0  0  0  0
    1.7361    1.5577   -1.6213 H   0  0  0  0  0  0  0  0  0  0  0  0
    4.9834    0.4490   -2.0868 H   0  0  0  0  0  0  0  0  0  0  0  0
    3.7533    0.0131    2.0320 H   0  0  0  0  0  0  0  0  0  0  0  0
    6.0773   -1.7405   -1.9869 H   0  0  0  0  0  0  0  0  0  0  0  0
    4.8463   -2.1774    2.1216 H   0  0  0  0  0  0  0  0  0  0  0  0
    7.2376   -3.3314    0.4534 H   0  0  0  0  0  0  0  0  0  0  0  0
    5.6821   -4.1099    0.8283 H   0  0  0  0  0  0  0  0  0  0  0  0
    6.1849   -3.9314   -0.8497 H   0  0  0  0  0  0  0  0  0  0  0  0
  1  4  2  0  0  0  0
  1  5  2  0  0  0  0
  1  7  1  0  0  0  0
  1 19  1  0  0  0  0
  2 11  1  0  0  0  0
  2 14  1  0  0  0  0
  3 10  1  0  0  0  0
  3 45  1  0  0  0  0
  6  8  1  0  0  0  0
  6  9  1  0  0  0  0
  6 30  1  0  0  0  0
  7 18  1  0  0  0  0
  7 46  1  0  0  0  0
  8 10  1  0  0  0  0
  8 14  1  0  0  0  0
  8 26  1  0  0  0  0
  9 12  1  0  0  0  0
  9 13  1  0  0  0  0
  9 27  1  0  0  0  0
 10 11  1  0  0  0  0
 10 28  1  0  0  0  0
 11 18  1  0  0  0  0
 11 29  1  0  0  0  0
 12 15  1  0  0  0  0
 12 31  1  0  0  0  0
 12 32  1  0  0  0  0
 13 16  1  0  0  0  0
 13 33  1  0  0  0  0
 13 34  1  0  0  0  0
 14 35  1  0  0  0  0
 14 36  1  0  0  0  0
 15 17  1  0  0  0  0
 15 37  1  0  0  0  0
 15 38  1  0  0  0  0
 16 17  1  0  0  0  0
 16 39  1  0  0  0  0
 16 40  1  0  0  0  0
 17 41  1  0  0  0  0
 17 42  1  0  0  0  0
 18 43  1  0  0  0  0
 18 44  1  0  0  0  0
 19 20  2  0  0  0  0
 19 21  1  0  0  0  0
 20 22  1  0  0  0  0
 20 47  1  0  0  0  0
 21 23  2  0  0  0  0
 21 48  1  0  0  0  0
 22 24  2  0  0  0  0
 22 49  1  0  0  0  0
 23 24  1  0  0  0  0
 23 50  1  0  0  0  0
 24 25  1  0  0  0  0
 25 51  1  0  0  0  0
 25 52  1  0  0  0  0
 25 53  1  0  0  0  0
M  END
> <PUBCHEM_COMPOUND_CID>
75536699

> <PUBCHEM_CONFORMER_RMSD>
1

> <PUBCHEM_CONFORMER_DIVERSEORDER>
1
40
21
78
46
20
97
110
75
77
73
38
51
124
85
49
41
13
28
126
112
12
3
123
61
108
48
98
6
70
18
117
90
31
42
15
104
54
94
115
74
57
113
106
43
84
102
52
9
87
86
50
14
67
59
11
96
16
109
60
35
103
53
2
47
122
36
66
8
82
29
76
26
45
111
121
105
80
114
83
88
93
56
58
79
91
107
72
119
7
63
71
95
68
19
33
27
116
62
22
64
89
81
32
34
39
4
101
120
65
125
17
69
99
30
5
55
37
23
100
44
24
92
118
25
10

> <PUBCHEM_MMFF94_PARTIAL_CHARGES>
27
1 1.45
10 0.28
11 0.28
14 0.28
18 0.36
19 -0.01
2 -0.56
20 -0.15
21 -0.15
22 -0.15
23 -0.15
24 -0.14
25 0.14
3 -0.68
30 0.36
4 -0.65
45 0.4
46 0.42
47 0.15
48 0.15
49 0.15
5 -0.65
50 0.15
6 -0.9
7 -0.91
8 0.27
9 0.27

> <PUBCHEM_EFFECTIVE_ROTOR_COUNT>
8.2

> <PUBCHEM_PHARMACOPHORE_FEATURES>
11
1 2 acceptor
1 3 acceptor
1 3 donor
1 4 acceptor
1 5 acceptor
1 6 cation
1 6 donor
1 7 donor
5 2 8 10 11 14 rings
6 19 20 21 22 23 24 rings
6 9 12 13 15 16 17 rings

> <PUBCHEM_HEAVY_ATOM_COUNT>
25

> <PUBCHEM_ATOM_DEF_STEREO_COUNT>
3

> <PUBCHEM_ATOM_UDEF_STEREO_COUNT>
0

> <PUBCHEM_BOND_DEF_STEREO_COUNT>
0

> <PUBCHEM_BOND_UDEF_STEREO_COUNT>
0

> <PUBCHEM_ISOTOPIC_ATOM_COUNT>
0

> <PUBCHEM_COMPONENT_COUNT>
1

> <PUBCHEM_CACTVS_TAUTO_COUNT>
1

> <PUBCHEM_CONFORMER_ID>
0480993B00000001

> <PUBCHEM_MMFF94_ENERGY>
30.6943

> <PUBCHEM_FEATURE_SELFOVERLAP>
55.84

> <PUBCHEM_SHAPE_FINGERPRINT>
10 15 15697993059069983819
10906281 52 13046215023684715845
11719270 70 17561368374705406615
12236239 1 18343866645460776241
125118 31 9799425420781291903
12616971 3 17846770823671216717
13533116 47 18411981386116285176
1361 4 18266739271832153271
13617811 41 15430033262203001079
13782708 43 18412541046515108871
13914758 101 18341615880924289089
14251764 75 10447055370491583994
14347332 77 18261106327375017941
14347424 109 18201997737685874944
15119646 104 18413392020990987231
15183329 4 18334295370828673139
15188451 53 17846496994042332130
15419008 42 17700416875883005613
15475509 8 17240766151396659901
15685185 35 9294128363773369058
16994733 274 9151178645295868367
1979834 28 16630530601027102150
20028762 73 18273214175464834550
20567600 234 12463565197031038275
20645477 70 18260828211764144804
21130935 74 18340205293268106731
21150785 3 12757156775032160723
21344244 181 18040436611639768955
21344244 78 17346593059302005592
21521721 280 9583522036269678701
21641784 216 14923932428104104255
21792934 111 15267071302951137659
22061861 79 18187359943785521607
221357 26 17895194372858385708
2215653 11 17676209073764351475
2303208 19 17822286894865547637
23081809 10 18272092734039278805
23522609 53 18121532147960526613
23536379 177 18412263965347983617
23559900 14 16878236341242814564
23569943 247 18115021879973222163
255183 451 18336552617098740332
29717793 49 18409731776440450108
3004659 81 18342742931217416708
3014965 18 18409448089819202821
3472631 163 10881696693322138154
34797466 226 16226052218723446662
3886686 26 16408752319319049734
394071 54 16951131810223037036
397830 11 11239708734561047125
4072396 5 16917352541053365445
4073 2 18117842324433685730
4340502 62 13326855526092269948
445580 126 8934995941891805702
46194498 28 17313390045836825796
465052 167 18342177752592940926
5085150 59 17131830997920305791
531348 171 18412823578433426615
5372103 7 14997434875749214582
54039377 194 18265617585995227046
59682541 52 18187081767064106239
59755656 215 17240478087913606707
6438161 24 18335134272378504978
7970288 3 18267303136998795406
960060 61 17749116591023747302
9965369 4 18343304756527736001

> <PUBCHEM_SHAPE_MULTIPOLES>
484.9
21.57
2.57
1.31
22.9
0.54
0.15
12.16
-1.19
-5.45
-0.1
-0.61
-0.19
-1.13

> <PUBCHEM_SHAPE_SELFOVERLAP>
990.572

> <PUBCHEM_SHAPE_VOLUME>
281.5

> <PUBCHEM_COORDINATE_TYPE>
2
5
10

$$$$
