45784268
  -OEChem-12032416283D

 42 45  0     1  0  0  0  0  0999 V2000
    7.3510    0.8106   -0.4341 F   0  0  0  0  0  0  0  0  0  0  0  0
    7.0259   -0.7878    1.0037 F   0  0  0  0  0  0  0  0  0  0  0  0
    6.8484   -1.1907   -1.1200 F   0  0  0  0  0  0  0  0  0  0  0  0
   -3.0144   -0.2759   -0.0969 N   0  0  1  0  0  0  0  0  0  0  0  0
    1.6608   -1.1902    0.4195 N   0  0  0  0  0  0  0  0  0  0  0  0
    1.0394    0.9151    0.0715 N   0  0  0  0  0  0  0  0  0  0  0  0
   -5.9920    1.2183   -0.0603 N   0  0  0  0  0  0  0  0  0  0  0  0
   -0.8067   -0.7458    0.5395 C   0  0  1  0  0  0  0  0  0  0  0  0
   -1.5403   -0.0518    1.7003 C   0  0  0  0  0  0  0  0  0  0  0  0
   -1.6916   -0.4896   -0.6879 C   0  0  0  0  0  0  0  0  0  0  0  0
   -2.7740    0.5778    1.0665 C   0  0  0  0  0  0  0  0  0  0  0  0
    0.6240   -0.3030    0.3371 C   0  0  0  0  0  0  0  0  0  0  0  0
   -3.9528    0.3195   -1.0366 C   0  0  0  0  0  0  0  0  0  0  0  0
    2.8228   -0.4987    0.1915 C   0  0  0  0  0  0  0  0  0  0  0  0
    2.4084    0.8129   -0.0229 C   0  0  0  0  0  0  0  0  0  0  0  0
   -5.3805    0.1374   -0.5946 C   0  0  0  0  0  0  0  0  0  0  0  0
    4.1598   -0.8956    0.1556 C   0  0  0  0  0  0  0  0  0  0  0  0
    3.3716    1.8004   -0.2903 C   0  0  0  0  0  0  0  0  0  0  0  0
    5.1051    0.1001   -0.1119 C   0  0  0  0  0  0  0  0  0  0  0  0
   -5.9874   -1.0982   -0.7525 C   0  0  0  0  0  0  0  0  0  0  0  0
    4.7201    1.4248   -0.3311 C   0  0  0  0  0  0  0  0  0  0  0  0
    6.5532   -0.2622   -0.1639 C   0  0  0  0  0  0  0  0  0  0  0  0
   -7.3069   -1.2330   -0.3353 C   0  0  0  0  0  0  0  0  0  0  0  0
   -7.2741    1.0492    0.3338 C   0  0  0  0  0  0  0  0  0  0  0  0
   -7.9698   -0.1436    0.2191 C   0  0  0  0  0  0  0  0  0  0  0  0
   -0.8106   -1.8255    0.7487 H   0  0  0  0  0  0  0  0  0  0  0  0
   -1.8396   -0.8026    2.4423 H   0  0  0  0  0  0  0  0  0  0  0  0
   -0.9298    0.6980    2.2145 H   0  0  0  0  0  0  0  0  0  0  0  0
   -1.3554    0.3943   -1.2463 H   0  0  0  0  0  0  0  0  0  0  0  0
   -1.6849   -1.3479   -1.3685 H   0  0  0  0  0  0  0  0  0  0  0  0
   -3.6168    0.5838    1.7650 H   0  0  0  0  0  0  0  0  0  0  0  0
   -2.5507    1.6128    0.7772 H   0  0  0  0  0  0  0  0  0  0  0  0
   -3.7417    1.3833   -1.2093 H   0  0  0  0  0  0  0  0  0  0  0  0
   -3.8573   -0.1621   -2.0198 H   0  0  0  0  0  0  0  0  0  0  0  0
    1.5880   -2.1803    0.6133 H   0  0  0  0  0  0  0  0  0  0  0  0
    4.4480   -1.9271    0.3273 H   0  0  0  0  0  0  0  0  0  0  0  0
    3.0823    2.8323   -0.4621 H   0  0  0  0  0  0  0  0  0  0  0  0
   -5.4622   -1.9423   -1.1865 H   0  0  0  0  0  0  0  0  0  0  0  0
    5.4610    2.1932   -0.5386 H   0  0  0  0  0  0  0  0  0  0  0  0
   -7.8178   -2.1851   -0.4420 H   0  0  0  0  0  0  0  0  0  0  0  0
   -7.7459    1.9285    0.7597 H   0  0  0  0  0  0  0  0  0  0  0  0
   -8.9983   -0.2258    0.5512 H   0  0  0  0  0  0  0  0  0  0  0  0
  1 22  1  0  0  0  0
  2 22  1  0  0  0  0
  3 22  1  0  0  0  0
  4 10  1  0  0  0  0
  4 11  1  0  0  0  0
  4 13  1  0  0  0  0
  5 12  1  0  0  0  0
  5 14  1  0  0  0  0
  5 35  1  0  0  0  0
  6 12  2  0  0  0  0
  6 15  1  0  0  0  0
  7 16  1  0  0  0  0
  7 24  2  0  0  0  0
  8  9  1  0  0  0  0
  8 10  1  0  0  0  0
  8 12  1  0  0  0  0
  8 26  1  0  0  0  0
  9 11  1  0  0  0  0
  9 27  1  0  0  0  0
  9 28  1  0  0  0  0
 10 29  1  0  0  0  0
 10 30  1  0  0  0  0
 11 31  1  0  0  0  0
 11 32  1  0  0  0  0
 13 16  1  0  0  0  0
 13 33  1  0  0  0  0
 13 34  1  0  0  0  0
 14 15  2  0  0  0  0
 14 17  1  0  0  0  0
 15 18  1  0  0  0  0
 16 20  2  0  0  0  0
 17 19  2  0  0  0  0
 17 36  1  0  0  0  0
 18 21  2  0  0  0  0
 18 37  1  0  0  0  0
 19 21  1  0  0  0  0
 19 22  1  0  0  0  0
 20 23  1  0  0  0  0
 20 38  1  0  0  0  0
 21 39  1  0  0  0  0
 23 25  2  0  0  0  0
 23 40  1  0  0  0  0
 24 25  1  0  0  0  0
 24 41  1  0  0  0  0
 25 42  1  0  0  0  0
M  END
> <PUBCHEM_COMPOUND_CID>
45784268

> <PUBCHEM_CONFORMER_RMSD>
0.8

> <PUBCHEM_CONFORMER_DIVERSEORDER>
1
60
64
51
32
70
40
47
36
55
26
63
13
37
27
65
48
16
71
56
45
43
28
44
68
15
9
10
49
54
17
57
33
67
62
50
5
69
30
42
41
31
52
59
3
38
18
66
61
7
21
58
2
19
4
12
29
25
46
22
53
34
8
14
39
35
6
20
24
11
23

> <PUBCHEM_MMFF94_PARTIAL_CHARGES>
32
1 -0.34
10 0.27
11 0.27
12 0.01
13 0.41
14 -0.15
15 0.23
16 0.17
17 -0.15
18 -0.15
19 -0.14
2 -0.34
20 -0.15
21 -0.15
22 1.16
23 -0.15
24 0.16
25 -0.15
3 -0.34
35 0.27
36 0.15
37 0.15
38 0.15
39 0.15
4 -0.81
40 0.15
41 0.15
42 0.15
5 0.03
6 -0.57
7 -0.62
8 0.18

> <PUBCHEM_EFFECTIVE_ROTOR_COUNT>
5

> <PUBCHEM_PHARMACOPHORE_FEATURES>
8
1 4 cation
1 5 donor
1 7 acceptor
3 5 6 12 cation
5 4 8 9 10 11 rings
5 5 6 12 14 15 rings
6 14 15 17 18 19 21 rings
6 7 16 20 23 24 25 rings

> <PUBCHEM_HEAVY_ATOM_COUNT>
25

> <PUBCHEM_ATOM_DEF_STEREO_COUNT>
1

> <PUBCHEM_ATOM_UDEF_STEREO_COUNT>
0

> <PUBCHEM_BOND_DEF_STEREO_COUNT>
0

> <PUBCHEM_BOND_UDEF_STEREO_COUNT>
0

> <PUBCHEM_ISOTOPIC_ATOM_COUNT>
0

> <PUBCHEM_COMPONENT_COUNT>
1

> <PUBCHEM_CACTVS_TAUTO_COUNT>
2

> <PUBCHEM_CONFORMER_ID>
02BA9CCC00000001

> <PUBCHEM_MMFF94_ENERGY>
46.663

> <PUBCHEM_FEATURE_SELFOVERLAP>
40.704

> <PUBCHEM_SHAPE_FINGERPRINT>
10 15 13045947914487282782
10066227 49 17917436363349041398
10299344 5 18413670223524111863
10595046 47 18410008824181318609
106641 1 12468646031931525725
10670039 82 16443336538463450453
11315181 36 11818992977480770503
11408170 108 17773881905572767326
11524674 6 15841831179628417455
11646440 116 16950004725300488949
11719270 70 17917712388064922798
12091667 2 18409167710797643835
12166972 35 18408323310889054365
12236239 1 18131069346268257669
12730499 353 17749107777244791795
12838862 33 12750951075417645501
13533116 47 17023453162570581642
13668630 136 18202848742590138134
13914758 101 18412547578559037905
14170010 4 18334011714066877764
14251752 14 17775284963306422217
14251764 18 17967531268012859088
14251764 46 18411136943700114291
14294032 229 17273152202105826649
14856354 85 18060420249218699063
14933364 13 18409729565160001269
15183329 4 18334007290134232483
15419008 47 16008741425264369733
15849732 13 18060418023212420796
17093844 174 13686299085323109207
18006028 8 12679461989205501323
18335252 98 18409735071614426171
18681886 176 18131061666819273003
20238998 120 13110964223503846675
20281389 69 16515399668898663452
21033648 29 17604429734232393536
21095086 128 18409728487466315687
21150785 3 18411982468432030858
21267235 1 18413673504193375661
21315763 28 18411980282662994389
221357 26 18333729113518806300
22224240 67 9511458914076090428
23035841 295 17346598591045659279
23198884 109 18408604773544553641
23536379 177 18412824681928687657
23559900 14 16701724051365087387
23576562 1 17823996725757305526
249057 3 18411698815717140287
29717793 49 17988929972514591076
3004659 81 18343017800323416720
314173 85 14405188383096515035
335352 9 18260833705217168590
3545911 37 17821727238967354179
4073 2 17895197769634575195
4098825 35 18337390444426458877
4325135 7 18408884045329583583
4339292 15 16916211304936816975
5283156 175 17489873717202928963
5758199 1 17676206858215315659
59682541 35 15574722409051355801
59755656 215 17968096408663741906
59755656 520 17676201403433419603
9663363 56 15697996332610302627

> <PUBCHEM_SHAPE_MULTIPOLES>
472.74
23.69
1.32
0.99
6.96
0.22
-0.17
-1.06
3.17
-0.37
0.1
0.29
-0.06
-0.62

> <PUBCHEM_SHAPE_SELFOVERLAP>
1039.729

> <PUBCHEM_SHAPE_VOLUME>
259.3

> <PUBCHEM_COORDINATE_TYPE>
2
5
10

$$$$
