75536684
  -OEChem-12032416303D

 51 53  0     1  0  0  0  0  0999 V2000
    5.2543    1.2398    0.1196 S   0  0  0  0  0  0  0  0  0  0  0  0
    0.9302    1.4616   -1.3366 O   0  0  0  0  0  0  0  0  0  0  0  0
    0.0090    1.1405    2.1208 O   0  0  0  0  0  0  0  0  0  0  0  0
    5.2771    1.6570    1.5086 O   0  0  0  0  0  0  0  0  0  0  0  0
    6.1497    1.8549   -0.8415 O   0  0  0  0  0  0  0  0  0  0  0  0
   -8.2276   -1.7106   -0.0230 O   0  0  0  0  0  0  0  0  0  0  0  0
   -2.2930    0.5320    0.0698 N   0  0  0  0  0  0  0  0  0  0  0  0
    3.6613    1.3318   -0.4704 N   0  0  0  0  0  0  0  0  0  0  0  0
   -1.0689    1.3050   -0.0635 C   0  0  1  0  0  0  0  0  0  0  0  0
    0.0856    0.7641    0.7595 C   0  0  1  0  0  0  0  0  0  0  0  0
    1.2733    1.4091    0.0582 C   0  0  1  0  0  0  0  0  0  0  0  0
   -0.4873    1.2547   -1.4668 C   0  0  0  0  0  0  0  0  0  0  0  0
    2.5687    0.6382    0.2394 C   0  0  0  0  0  0  0  0  0  0  0  0
   -3.4377    1.2664   -0.4559 C   0  0  0  0  0  0  0  0  0  0  0  0
   -4.7127    0.4740   -0.3412 C   0  0  0  0  0  0  0  0  0  0  0  0
    5.5591   -0.5007    0.0685 C   0  0  0  0  0  0  0  0  0  0  0  0
   -5.6387    0.7838    0.6549 C   0  0  0  0  0  0  0  0  0  0  0  0
   -4.9681   -0.5700   -1.2304 C   0  0  0  0  0  0  0  0  0  0  0  0
    6.1027   -1.0803   -1.0779 C   0  0  0  0  0  0  0  0  0  0  0  0
    5.2563   -1.2944    1.1747 C   0  0  0  0  0  0  0  0  0  0  0  0
   -6.8201    0.0500    0.7617 C   0  0  0  0  0  0  0  0  0  0  0  0
   -6.1493   -1.3039   -1.1236 C   0  0  0  0  0  0  0  0  0  0  0  0
   -7.0753   -0.9939   -0.1276 C   0  0  0  0  0  0  0  0  0  0  0  0
    6.3435   -2.4537   -1.1181 C   0  0  0  0  0  0  0  0  0  0  0  0
    5.4973   -2.6678    1.1346 C   0  0  0  0  0  0  0  0  0  0  0  0
    6.0407   -3.2473   -0.0119 C   0  0  0  0  0  0  0  0  0  0  0  0
   -9.1302   -1.3401    1.0182 C   0  0  0  0  0  0  0  0  0  0  0  0
   -1.2430    2.3472    0.2398 H   0  0  0  0  0  0  0  0  0  0  0  0
    0.1360   -0.3301    0.6976 H   0  0  0  0  0  0  0  0  0  0  0  0
    1.4145    2.4431    0.3997 H   0  0  0  0  0  0  0  0  0  0  0  0
   -0.6283    0.2768   -1.9416 H   0  0  0  0  0  0  0  0  0  0  0  0
   -0.9061    2.0214   -2.1257 H   0  0  0  0  0  0  0  0  0  0  0  0
    2.4767   -0.3653   -0.1908 H   0  0  0  0  0  0  0  0  0  0  0  0
    2.7965    0.5515    1.3061 H   0  0  0  0  0  0  0  0  0  0  0  0
   -2.4546    0.3321    1.0573 H   0  0  0  0  0  0  0  0  0  0  0  0
   -3.2890    1.5153   -1.5144 H   0  0  0  0  0  0  0  0  0  0  0  0
   -3.5546    2.2219    0.0719 H   0  0  0  0  0  0  0  0  0  0  0  0
   -0.0362    2.1105    2.1678 H   0  0  0  0  0  0  0  0  0  0  0  0
    3.5205    1.4708   -1.4789 H   0  0  0  0  0  0  0  0  0  0  0  0
   -5.4509    1.5932    1.3555 H   0  0  0  0  0  0  0  0  0  0  0  0
   -4.2543   -0.8204   -2.0108 H   0  0  0  0  0  0  0  0  0  0  0  0
    6.3393   -0.4826   -1.9535 H   0  0  0  0  0  0  0  0  0  0  0  0
    4.8303   -0.8649    2.0769 H   0  0  0  0  0  0  0  0  0  0  0  0
   -7.4950    0.3434    1.5584 H   0  0  0  0  0  0  0  0  0  0  0  0
   -6.3427   -2.1161   -1.8191 H   0  0  0  0  0  0  0  0  0  0  0  0
    6.7650   -2.9055   -2.0114 H   0  0  0  0  0  0  0  0  0  0  0  0
    5.2609   -3.2862    1.9956 H   0  0  0  0  0  0  0  0  0  0  0  0
    6.2275   -4.3168   -0.0433 H   0  0  0  0  0  0  0  0  0  0  0  0
   -9.9914   -2.0132    0.9540 H   0  0  0  0  0  0  0  0  0  0  0  0
   -9.5093   -0.3220    0.8788 H   0  0  0  0  0  0  0  0  0  0  0  0
   -8.6842   -1.4853    2.0080 H   0  0  0  0  0  0  0  0  0  0  0  0
  1  4  2  0  0  0  0
  1  5  2  0  0  0  0
  1  8  1  0  0  0  0
  1 16  1  0  0  0  0
  2 11  1  0  0  0  0
  2 12  1  0  0  0  0
  3 10  1  0  0  0  0
  3 38  1  0  0  0  0
  6 23  1  0  0  0  0
  6 27  1  0  0  0  0
  7  9  1  0  0  0  0
  7 14  1  0  0  0  0
  7 35  1  0  0  0  0
  8 13  1  0  0  0  0
  8 39  1  0  0  0  0
  9 10  1  0  0  0  0
  9 12  1  0  0  0  0
  9 28  1  0  0  0  0
 10 11  1  0  0  0  0
 10 29  1  0  0  0  0
 11 13  1  0  0  0  0
 11 30  1  0  0  0  0
 12 31  1  0  0  0  0
 12 32  1  0  0  0  0
 13 33  1  0  0  0  0
 13 34  1  0  0  0  0
 14 15  1  0  0  0  0
 14 36  1  0  0  0  0
 14 37  1  0  0  0  0
 15 17  2  0  0  0  0
 15 18  1  0  0  0  0
 16 19  2  0  0  0  0
 16 20  1  0  0  0  0
 17 21  1  0  0  0  0
 17 40  1  0  0  0  0
 18 22  2  0  0  0  0
 18 41  1  0  0  0  0
 19 24  1  0  0  0  0
 19 42  1  0  0  0  0
 20 25  2  0  0  0  0
 20 43  1  0  0  0  0
 21 23  2  0  0  0  0
 21 44  1  0  0  0  0
 22 23  1  0  0  0  0
 22 45  1  0  0  0  0
 24 26  2  0  0  0  0
 24 46  1  0  0  0  0
 25 26  1  0  0  0  0
 25 47  1  0  0  0  0
 26 48  1  0  0  0  0
 27 49  1  0  0  0  0
 27 50  1  0  0  0  0
 27 51  1  0  0  0  0
M  END
> <PUBCHEM_COMPOUND_CID>
75536684

> <PUBCHEM_CONFORMER_RMSD>
1.2

> <PUBCHEM_CONFORMER_DIVERSEORDER>
1
13
41
61
55
54
35
84
6
112
46
60
31
30
33
100
77
66
12
42
91
47
81
96
11
104
69
80
53
75
65
5
93
87
2
68
9
44
95
38
73
39
45
105
22
59
4
78
89
27
90
17
83
74
34
50
26
52
7
37
14
62
8
79
24
3
97
58
36
107
43
49
109
40
10
48
102
99
56
110
98
63
106
67
86
111
21
15
64
94
72
32
103
18
85
101
23
20
82
76
108
57
28
92
29
51
70
71
19
88
25
16

> <PUBCHEM_MMFF94_PARTIAL_CHARGES>
39
1 1.45
10 0.28
11 0.28
12 0.28
13 0.36
14 0.41
15 -0.14
16 -0.01
17 -0.15
18 -0.15
19 -0.15
2 -0.56
20 -0.15
21 -0.15
22 -0.15
23 0.08
24 -0.15
25 -0.15
26 -0.15
27 0.28
3 -0.68
35 0.36
38 0.4
39 0.42
4 -0.65
40 0.15
41 0.15
42 0.15
43 0.15
44 0.15
45 0.15
46 0.15
47 0.15
48 0.15
5 -0.65
6 -0.36
7 -0.9
8 -0.91
9 0.27

> <PUBCHEM_EFFECTIVE_ROTOR_COUNT>
9

> <PUBCHEM_PHARMACOPHORE_FEATURES>
12
1 2 acceptor
1 3 acceptor
1 3 donor
1 4 acceptor
1 5 acceptor
1 6 acceptor
1 7 cation
1 7 donor
1 8 donor
5 2 9 10 11 12 rings
6 15 17 18 21 22 23 rings
6 16 19 20 24 25 26 rings

> <PUBCHEM_HEAVY_ATOM_COUNT>
27

> <PUBCHEM_ATOM_DEF_STEREO_COUNT>
3

> <PUBCHEM_ATOM_UDEF_STEREO_COUNT>
0

> <PUBCHEM_BOND_DEF_STEREO_COUNT>
0

> <PUBCHEM_BOND_UDEF_STEREO_COUNT>
0

> <PUBCHEM_ISOTOPIC_ATOM_COUNT>
0

> <PUBCHEM_COMPONENT_COUNT>
1

> <PUBCHEM_CACTVS_TAUTO_COUNT>
1

> <PUBCHEM_CONFORMER_ID>
0480992C00000001

> <PUBCHEM_MMFF94_ENERGY>
59.8414

> <PUBCHEM_FEATURE_SELFOVERLAP>
60.916

> <PUBCHEM_SHAPE_FINGERPRINT>
10 15 15195563519992025241
10299344 5 18343023306972662893
11135609 127 11169918312230465214
11408170 132 16371553801252905071
117089 54 17698170552501451414
11719270 70 17561365058505227519
125118 31 10159699100955075443
12539765 74 11097847468013318329
13533116 47 18342737404217174536
1361 2 18260548918499003794
1361 4 18410854403624853030
13617811 41 15936410035508772310
13668630 136 17822008740331014627
13685833 64 18409730673166442597
13782708 43 18410568457539272780
14251764 18 18130788988642303693
14347332 77 18261950731020373492
15183329 4 17967251996402000235
15352257 5 18411699889633316751
15475509 35 18201991115273429754
17134984 74 17967812735112318314
17324776 126 17102544161300857042
1818759 1 17894920646540877659
18335252 98 18410009962047419816
20165401 70 18412259519619671158
2026 5 18261671467983982099
20281389 69 11167947956859162409
21130935 74 18413388722244678697
21344244 181 18186239528325608882
21521239 73 17894348869421899442
21641784 216 15068897508534810172
21792934 111 13254805602976436035
2303208 19 18261103046062215124
23081809 10 18413394223971788177
23522609 53 18198371548306600777
23569943 247 17972033647928190418
23576562 1 13624115148051331075
2748736 6 9799400122859071910
328310 630 10953741067376707215
33532 11 18410011039978599135
34797466 226 17749390394988966004
3663271 9 18131350812634259953
397638 26 14764628612425076911
465052 167 18201436940159454356
5104073 3 15553583249338678485
6898599 12 11170502122228620488
9831232 110 18339079259995862054

> <PUBCHEM_SHAPE_MULTIPOLES>
520.19
26.85
2.67
1.38
30.47
1.63
0.14
18.79
1.66
-4.87
-0.01
-0.4
-0.03
0.07

> <PUBCHEM_SHAPE_SELFOVERLAP>
1081.391

> <PUBCHEM_SHAPE_VOLUME>
297.1

> <PUBCHEM_COORDINATE_TYPE>
2
5
10

$$$$
