9391205
  -OEChem-12032416153D

 58 61  0     1  0  0  0  0  0999 V2000
   -1.3231    2.2288    0.6895 S   0  0  0  0  0  0  0  0  0  0  0  0
    2.9669   -0.0618   -3.3607 O   0  0  0  0  0  0  0  0  0  0  0  0
    1.3405   -3.4627    0.4274 O   0  0  0  0  0  0  0  0  0  0  0  0
   -1.1488   -3.0802    0.6455 O   0  0  0  0  0  0  0  0  0  0  0  0
   -1.7199    1.4057   -0.4368 O   0  0  0  0  0  0  0  0  0  0  0  0
   -1.5783    1.8074    2.0533 O   0  0  0  0  0  0  0  0  0  0  0  0
    2.0084   -1.4507    1.3780 N   0  0  0  0  0  0  0  0  0  0  0  0
    2.7468    0.4526   -1.0848 N   0  0  0  0  0  0  0  0  0  0  0  0
    0.3114    2.6744    0.5319 N   0  0  0  0  0  0  0  0  0  0  0  0
    4.2559   -0.6067    0.6927 C   0  0  1  0  0  0  0  0  0  0  0  0
    2.5063    0.9848    1.3632 C   0  0  2  0  0  0  0  0  0  0  0  0
    3.9997    0.6769    1.4657 C   0  0  0  0  0  0  0  0  0  0  0  0
    3.4336   -1.7686    1.2757 C   0  0  0  0  0  0  0  0  0  0  0  0
    3.9363   -0.3539   -0.7816 C   0  0  0  0  0  0  0  0  0  0  0  0
    1.7025   -0.1599    2.0117 C   0  0  0  0  0  0  0  0  0  0  0  0
    2.0615    1.1732   -0.0862 C   0  0  0  0  0  0  0  0  0  0  0  0
    1.0350    1.9669   -0.4566 C   0  0  0  0  0  0  0  0  0  0  0  0
    2.3947    0.5337   -2.4472 C   0  0  0  0  0  0  0  0  0  0  0  0
    1.0613   -2.3844    0.9576 C   0  0  0  0  0  0  0  0  0  0  0  0
    0.6302    2.1002   -1.8269 C   0  0  0  0  0  0  0  0  0  0  0  0
    1.2538    1.4212   -2.7911 C   0  0  0  0  0  0  0  0  0  0  0  0
   -0.3865   -2.0210    1.1712 C   0  0  0  0  0  0  0  0  0  0  0  0
   -2.0792    3.8203    0.4700 C   0  0  0  0  0  0  0  0  0  0  0  0
   -3.5934    3.7312    0.5635 C   0  0  0  0  0  0  0  0  0  0  0  0
   -2.3701   -2.7667    0.0917 C   0  0  0  0  0  0  0  0  0  0  0  0
   -4.2440    5.0887    0.3562 C   0  0  0  0  0  0  0  0  0  0  0  0
   -3.0796   -1.6789    0.5779 C   0  0  0  0  0  0  0  0  0  0  0  0
   -2.8689   -3.5449   -0.9423 C   0  0  0  0  0  0  0  0  0  0  0  0
   -4.3169   -1.3618    0.0174 C   0  0  0  0  0  0  0  0  0  0  0  0
   -4.1062   -3.2276   -1.5029 C   0  0  0  0  0  0  0  0  0  0  0  0
   -4.8300   -2.1361   -1.0230 C   0  0  0  0  0  0  0  0  0  0  0  0
    5.3155   -0.8797    0.7728 H   0  0  0  0  0  0  0  0  0  0  0  0
    2.3484    1.8963    1.9476 H   0  0  0  0  0  0  0  0  0  0  0  0
    4.2954    0.5568    2.5152 H   0  0  0  0  0  0  0  0  0  0  0  0
    4.5958    1.5025    1.0572 H   0  0  0  0  0  0  0  0  0  0  0  0
    3.5870   -2.6758    0.6817 H   0  0  0  0  0  0  0  0  0  0  0  0
    3.7780   -1.9916    2.2932 H   0  0  0  0  0  0  0  0  0  0  0  0
    3.8615   -1.3051   -1.3240 H   0  0  0  0  0  0  0  0  0  0  0  0
    4.7801    0.1842   -1.2353 H   0  0  0  0  0  0  0  0  0  0  0  0
    0.6350    0.0610    1.9895 H   0  0  0  0  0  0  0  0  0  0  0  0
    1.9780   -0.2575    3.0693 H   0  0  0  0  0  0  0  0  0  0  0  0
   -0.1751    2.7789   -2.0876 H   0  0  0  0  0  0  0  0  0  0  0  0
    0.9684    1.5154   -3.8321 H   0  0  0  0  0  0  0  0  0  0  0  0
    0.7932    2.8634    1.4165 H   0  0  0  0  0  0  0  0  0  0  0  0
   -0.5869   -1.9105    2.2414 H   0  0  0  0  0  0  0  0  0  0  0  0
   -0.5628   -1.0863    0.6267 H   0  0  0  0  0  0  0  0  0  0  0  0
   -1.6835    4.4825    1.2470 H   0  0  0  0  0  0  0  0  0  0  0  0
   -1.7763    4.1971   -0.5122 H   0  0  0  0  0  0  0  0  0  0  0  0
   -3.8881    3.3356    1.5424 H   0  0  0  0  0  0  0  0  0  0  0  0
   -3.9777    3.0307   -0.1872 H   0  0  0  0  0  0  0  0  0  0  0  0
   -3.9999    5.4942   -0.6309 H   0  0  0  0  0  0  0  0  0  0  0  0
   -3.9091    5.8039    1.1143 H   0  0  0  0  0  0  0  0  0  0  0  0
   -5.3327    5.0024    0.4281 H   0  0  0  0  0  0  0  0  0  0  0  0
   -2.7262   -1.0706    1.4047 H   0  0  0  0  0  0  0  0  0  0  0  0
   -2.3071   -4.3951   -1.3178 H   0  0  0  0  0  0  0  0  0  0  0  0
   -4.8832   -0.5152    0.3946 H   0  0  0  0  0  0  0  0  0  0  0  0
   -4.5060   -3.8307   -2.3130 H   0  0  0  0  0  0  0  0  0  0  0  0
   -5.7939   -1.8900   -1.4588 H   0  0  0  0  0  0  0  0  0  0  0  0
  1  5  2  0  0  0  0
  1  6  2  0  0  0  0
  1  9  1  0  0  0  0
  1 23  1  0  0  0  0
  2 18  2  0  0  0  0
  3 19  2  0  0  0  0
  4 22  1  0  0  0  0
  4 25  1  0  0  0  0
  7 13  1  0  0  0  0
  7 15  1  0  0  0  0
  7 19  1  0  0  0  0
  8 14  1  0  0  0  0
  8 16  1  0  0  0  0
  8 18  1  0  0  0  0
  9 17  1  0  0  0  0
  9 44  1  0  0  0  0
 10 12  1  0  0  0  0
 10 13  1  0  0  0  0
 10 14  1  0  0  0  0
 10 32  1  0  0  0  0
 11 12  1  0  0  0  0
 11 15  1  0  0  0  0
 11 16  1  0  0  0  0
 11 33  1  0  0  0  0
 12 34  1  0  0  0  0
 12 35  1  0  0  0  0
 13 36  1  0  0  0  0
 13 37  1  0  0  0  0
 14 38  1  0  0  0  0
 14 39  1  0  0  0  0
 15 40  1  0  0  0  0
 15 41  1  0  0  0  0
 16 17  2  0  0  0  0
 17 20  1  0  0  0  0
 18 21  1  0  0  0  0
 19 22  1  0  0  0  0
 20 21  2  0  0  0  0
 20 42  1  0  0  0  0
 21 43  1  0  0  0  0
 22 45  1  0  0  0  0
 22 46  1  0  0  0  0
 23 24  1  0  0  0  0
 23 47  1  0  0  0  0
 23 48  1  0  0  0  0
 24 26  1  0  0  0  0
 24 49  1  0  0  0  0
 24 50  1  0  0  0  0
 25 27  2  0  0  0  0
 25 28  1  0  0  0  0
 26 51  1  0  0  0  0
 26 52  1  0  0  0  0
 26 53  1  0  0  0  0
 27 29  1  0  0  0  0
 27 54  1  0  0  0  0
 28 30  2  0  0  0  0
 28 55  1  0  0  0  0
 29 31  2  0  0  0  0
 29 56  1  0  0  0  0
 30 31  1  0  0  0  0
 30 57  1  0  0  0  0
 31 58  1  0  0  0  0
M  END
> <PUBCHEM_COMPOUND_CID>
9391205

> <PUBCHEM_CONFORMER_RMSD>
1

> <PUBCHEM_CONFORMER_DIVERSEORDER>
1
40
13
38
32
125
7
53
69
111
122
75
35
78
28
50
116
6
137
145
131
46
41
70
57
80
83
112
106
152
9
136
150
143
66
52
124
85
47
128
110
33
12
23
15
84
27
25
146
135
31
36
153
92
54
19
97
120
129
87
45
63
60
59
71
123
115
90
22
29
114
103
58
121
144
100
2
8
99
55
126
67
34
119
76
56
17
151
96
14
21
81
48
51
30
102
133
148
108
11
4
61
117
65
142
49
79
107
64
101
39
68
5
127
43
42
130
88
3
20
18
37
109
91
44
89
94
147
24
93
82
74
118
132
98
138
16
140
141
73
139
105
104
77
26
134
113
62
86
149
10
72
95

> <PUBCHEM_MMFF94_PARTIAL_CHARGES>
35
1 1.33
11 0.14
13 0.3
14 0.3
15 0.3
16 -0.03
17 0.19
18 0.62
19 0.57
2 -0.57
20 -0.15
21 -0.14
22 0.34
23 0.11
25 0.08
27 -0.15
28 -0.15
29 -0.15
3 -0.57
30 -0.15
31 -0.15
4 -0.36
42 0.15
43 0.15
44 0.42
5 -0.65
54 0.15
55 0.15
56 0.15
57 0.15
58 0.15
6 -0.65
7 -0.66
8 -0.47
9 -0.75

> <PUBCHEM_EFFECTIVE_ROTOR_COUNT>
9

> <PUBCHEM_PHARMACOPHORE_FEATURES>
11
1 2 acceptor
1 26 hydrophobe
1 3 acceptor
1 4 acceptor
1 5 acceptor
1 6 acceptor
1 9 donor
6 25 27 28 29 30 31 rings
6 7 10 11 12 13 15 rings
6 8 10 11 12 14 16 rings
6 8 16 17 18 20 21 rings

> <PUBCHEM_HEAVY_ATOM_COUNT>
31

> <PUBCHEM_ATOM_DEF_STEREO_COUNT>
2

> <PUBCHEM_ATOM_UDEF_STEREO_COUNT>
0

> <PUBCHEM_BOND_DEF_STEREO_COUNT>
0

> <PUBCHEM_BOND_UDEF_STEREO_COUNT>
0

> <PUBCHEM_ISOTOPIC_ATOM_COUNT>
0

> <PUBCHEM_COMPONENT_COUNT>
1

> <PUBCHEM_CACTVS_TAUTO_COUNT>
1

> <PUBCHEM_CONFORMER_ID>
008F4C6500000001

> <PUBCHEM_MMFF94_ENERGY>
79.9724

> <PUBCHEM_FEATURE_SELFOVERLAP>
57.414

> <PUBCHEM_SHAPE_FINGERPRINT>
10064457 181 18051404076975592280
10675989 125 18190452956210630453
10764073 3 17542752728230452464
11513181 2 17986377894394829735
11578080 2 16557097556365293232
12156800 1 18269571441922952238
12160290 23 18197527102201514097
12166972 35 17824527789283222467
12596599 1 17843417408054885323
12788726 201 18337686320323206613
1361 2 17618496585350546593
14068700 675 18192980728983993736
14114206 34 17903389183117287349
14863182 85 17690568476559084240
15297060 5 17913483537442242787
18336668 15 17896860231262926482
21860390 5 17623282084433177084
22121540 332 17698990006174732512
238 59 16226614129326560428
244849 19 17416945297952181330
3052486 1 18336837415504509148
338550 245 18189905223305103649
35225 105 18198602372648430942
513532 50 17769377454486154862
57527573 199 17832983128522241336
6287921 2 17187005289922753481
653340 110 18340750603078641897

> <PUBCHEM_SHAPE_MULTIPOLES>
597.53
8.37
5.87
2.33
3.83
3.59
1.81
-2.18
0.59
9.83
-0.81
-2.17
0.32
-2.59

> <PUBCHEM_SHAPE_SELFOVERLAP>
1264.146

> <PUBCHEM_SHAPE_VOLUME>
333.7

> <PUBCHEM_COORDINATE_TYPE>
2
5
10

$$$$
