75536791
  -OEChem-12032416393D

 47 49  0     1  0  0  0  0  0999 V2000
   -0.0909    0.5325   -0.9032 O   0  0  0  0  0  0  0  0  0  0  0  0
   -1.3254   -2.4098    0.7474 O   0  0  0  0  0  0  0  0  0  0  0  0
    3.2230   -1.6068    1.2058 O   0  0  0  0  0  0  0  0  0  0  0  0
   -3.5201   -0.6564   -0.6615 N   0  0  0  0  0  0  0  0  0  0  0  0
   -7.1574    0.9779    0.8222 N   0  0  0  0  0  0  0  0  0  0  0  0
    2.4961   -0.7208   -0.8115 N   0  0  0  0  0  0  0  0  0  0  0  0
    6.8708    1.6299    0.1133 N   0  0  0  0  0  0  0  0  0  0  0  0
   -2.1867   -0.3249   -0.1862 C   0  0  1  0  0  0  0  0  0  0  0  0
   -1.1971   -1.4695   -0.3014 C   0  0  1  0  0  0  0  0  0  0  0  0
   -4.4919    0.3391   -0.2151 C   0  0  0  0  0  0  0  0  0  0  0  0
    0.1269   -0.7205   -0.2334 C   0  0  1  0  0  0  0  0  0  0  0  0
   -1.5082    0.7450   -1.0259 C   0  0  0  0  0  0  0  0  0  0  0  0
   -4.8718    0.1161    1.2532 C   0  0  0  0  0  0  0  0  0  0  0  0
   -5.7440    0.2907   -1.0970 C   0  0  0  0  0  0  0  0  0  0  0  0
   -5.9763    1.0830    1.6825 C   0  0  0  0  0  0  0  0  0  0  0  0
   -6.8145    1.2507   -0.5759 C   0  0  0  0  0  0  0  0  0  0  0  0
    1.2724   -1.4646   -0.8963 C   0  0  0  0  0  0  0  0  0  0  0  0
    3.3868   -0.8540    0.2493 C   0  0  0  0  0  0  0  0  0  0  0  0
    4.5969    0.0066    0.2020 C   0  0  0  0  0  0  0  0  0  0  0  0
    5.2320    0.3834    1.3803 C   0  0  0  0  0  0  0  0  0  0  0  0
    5.0975    0.4405   -1.0205 C   0  0  0  0  0  0  0  0  0  0  0  0
    6.3552    1.1887    1.2826 C   0  0  0  0  0  0  0  0  0  0  0  0
    6.2269    1.2432   -1.0108 C   0  0  0  0  0  0  0  0  0  0  0  0
   -2.2005   -0.0142    0.8655 H   0  0  0  0  0  0  0  0  0  0  0  0
   -1.3073   -1.9917   -1.2600 H   0  0  0  0  0  0  0  0  0  0  0  0
   -4.0752    1.3498   -0.3210 H   0  0  0  0  0  0  0  0  0  0  0  0
    0.3911   -0.4926    0.8077 H   0  0  0  0  0  0  0  0  0  0  0  0
   -3.7928   -1.5793   -0.3248 H   0  0  0  0  0  0  0  0  0  0  0  0
   -1.7563    0.6587   -2.0902 H   0  0  0  0  0  0  0  0  0  0  0  0
   -1.7494    1.7602   -0.6970 H   0  0  0  0  0  0  0  0  0  0  0  0
   -4.0149    0.2587    1.9198 H   0  0  0  0  0  0  0  0  0  0  0  0
   -5.2213   -0.9147    1.4024 H   0  0  0  0  0  0  0  0  0  0  0  0
   -6.1533   -0.7285   -1.1190 H   0  0  0  0  0  0  0  0  0  0  0  0
   -5.4898    0.5543   -2.1310 H   0  0  0  0  0  0  0  0  0  0  0  0
   -6.2714    0.8534    2.7124 H   0  0  0  0  0  0  0  0  0  0  0  0
   -5.5998    2.1133    1.6805 H   0  0  0  0  0  0  0  0  0  0  0  0
   -7.7178    1.1432   -1.1864 H   0  0  0  0  0  0  0  0  0  0  0  0
   -6.4777    2.2891   -0.6846 H   0  0  0  0  0  0  0  0  0  0  0  0
    1.0728   -1.6059   -1.9642 H   0  0  0  0  0  0  0  0  0  0  0  0
    1.4119   -2.4485   -0.4358 H   0  0  0  0  0  0  0  0  0  0  0  0
   -7.8603    1.6481    1.1328 H   0  0  0  0  0  0  0  0  0  0  0  0
   -1.2290   -1.9401    1.5930 H   0  0  0  0  0  0  0  0  0  0  0  0
    2.6602   -0.0305   -1.5364 H   0  0  0  0  0  0  0  0  0  0  0  0
    4.8714    0.0705    2.3543 H   0  0  0  0  0  0  0  0  0  0  0  0
    4.6652    0.1588   -1.9737 H   0  0  0  0  0  0  0  0  0  0  0  0
    6.8863    1.5114    2.1720 H   0  0  0  0  0  0  0  0  0  0  0  0
    6.6613    1.6026   -1.9379 H   0  0  0  0  0  0  0  0  0  0  0  0
  1 11  1  0  0  0  0
  1 12  1  0  0  0  0
  2  9  1  0  0  0  0
  2 42  1  0  0  0  0
  3 18  2  0  0  0  0
  4  8  1  0  0  0  0
  4 10  1  0  0  0  0
  4 28  1  0  0  0  0
  5 15  1  0  0  0  0
  5 16  1  0  0  0  0
  5 41  1  0  0  0  0
  6 17  1  0  0  0  0
  6 18  1  0  0  0  0
  6 43  1  0  0  0  0
  7 22  2  0  0  0  0
  7 23  1  0  0  0  0
  8  9  1  0  0  0  0
  8 12  1  0  0  0  0
  8 24  1  0  0  0  0
  9 11  1  0  0  0  0
  9 25  1  0  0  0  0
 10 13  1  0  0  0  0
 10 14  1  0  0  0  0
 10 26  1  0  0  0  0
 11 17  1  0  0  0  0
 11 27  1  0  0  0  0
 12 29  1  0  0  0  0
 12 30  1  0  0  0  0
 13 15  1  0  0  0  0
 13 31  1  0  0  0  0
 13 32  1  0  0  0  0
 14 16  1  0  0  0  0
 14 33  1  0  0  0  0
 14 34  1  0  0  0  0
 15 35  1  0  0  0  0
 15 36  1  0  0  0  0
 16 37  1  0  0  0  0
 16 38  1  0  0  0  0
 17 39  1  0  0  0  0
 17 40  1  0  0  0  0
 18 19  1  0  0  0  0
 19 20  2  0  0  0  0
 19 21  1  0  0  0  0
 20 22  1  0  0  0  0
 20 44  1  0  0  0  0
 21 23  2  0  0  0  0
 21 45  1  0  0  0  0
 22 46  1  0  0  0  0
 23 47  1  0  0  0  0
M  END
> <PUBCHEM_COMPOUND_CID>
75536791

> <PUBCHEM_CONFORMER_RMSD>
0.8

> <PUBCHEM_CONFORMER_DIVERSEORDER>
1
58
121
7
100
98
49
139
82
44
81
132
57
40
83
125
56
140
27
96
107
87
129
11
38
104
53
115
4
19
48
20
110
99
124
25
10
14
112
23
126
91
60
131
94
111
33
102
109
45
123
78
89
118
77
116
79
92
88
31
120
97
85
55
18
76
130
71
119
122
128
50
103
75
39
86
22
67
95
24
84
52
135
114
16
43
6
73
137
105
65
26
117
68
136
66
42
62
113
127
106
134
51
32
138
101
9
41
64
8
29
90
2
47
93
69
36
46
17
59
80
37
35
12
72
61
74
133
28
21
5
3
54
108
13
30
15
63
70
34

> <PUBCHEM_MMFF94_PARTIAL_CHARGES>
29
1 -0.56
10 0.27
11 0.28
12 0.28
15 0.27
16 0.27
17 0.3
18 0.54
19 0.09
2 -0.68
20 -0.15
21 -0.15
22 0.16
23 0.16
28 0.36
3 -0.57
4 -0.9
41 0.36
42 0.4
43 0.37
44 0.15
45 0.15
46 0.15
47 0.15
5 -0.9
6 -0.73
7 -0.62
8 0.27
9 0.28

> <PUBCHEM_EFFECTIVE_ROTOR_COUNT>
8.2

> <PUBCHEM_PHARMACOPHORE_FEATURES>
13
1 1 acceptor
1 2 acceptor
1 2 donor
1 3 acceptor
1 4 cation
1 4 donor
1 5 cation
1 5 donor
1 6 donor
1 7 acceptor
5 1 8 9 11 12 rings
6 5 10 13 14 15 16 rings
6 7 19 20 21 22 23 rings

> <PUBCHEM_HEAVY_ATOM_COUNT>
23

> <PUBCHEM_ATOM_DEF_STEREO_COUNT>
3

> <PUBCHEM_ATOM_UDEF_STEREO_COUNT>
0

> <PUBCHEM_BOND_DEF_STEREO_COUNT>
0

> <PUBCHEM_BOND_UDEF_STEREO_COUNT>
0

> <PUBCHEM_ISOTOPIC_ATOM_COUNT>
0

> <PUBCHEM_COMPONENT_COUNT>
1

> <PUBCHEM_CACTVS_TAUTO_COUNT>
2

> <PUBCHEM_CONFORMER_ID>
0480999700000001

> <PUBCHEM_MMFF94_ENERGY>
37.5298

> <PUBCHEM_FEATURE_SELFOVERLAP>
65.973

> <PUBCHEM_SHAPE_FINGERPRINT>
10 15 17458065971161340277
10554248 39 17773585019276621287
106641 1 18260272975640403275
10670039 82 14189585108744903195
10753850 27 10665228154937545262
10906281 52 18340498823500339287
117890 112 18342737416368775318
12166972 35 13110957656350709227
125118 31 18262235517422280605
12555020 224 10519981565281433021
12596602 18 15936407840543587508
12616971 3 16878222065120026870
12670543 26 12967132692221030707
12760667 363 8358261449267178455
12954195 1 10807670968822427091
13533116 47 18341332172211513630
13668630 136 9583516516846410061
13673619 4 7997972370876249758
13685833 64 11818994080443294540
13782708 43 10953459639190812887
13862211 1 8718827582918726453
14251752 14 13470689222037847909
14251764 18 18261393377725414559
14347332 77 10159713377700570006
14528608 73 16630522933951302326
14933364 13 16487257672959364813
15048467 5 18202001027582960865
15183329 4 13973973090361497970
15188451 53 13262396674119884527
15348495 7 16588033449747272385
15706992 2 17988096555617430409
15716309 27 13623533463365681469
1768 124 13623524654388284408
17980427 23 18188208822349138686
190975 80 16877951576342299865
2026 5 11602536542294205769
20281389 69 18342737390614847753
21033648 29 17917418891822169586
21150785 3 15626220230243885045
21424621 283 18200883881325837547
21637258 2 11891334270333835335
22061861 79 12247678262044084689
221357 26 14836406930578147666
2215653 11 12319736973147965068
22224240 67 18260268538865632139
23081809 10 17846490401362588855
23198884 109 16630811002177384109
29717793 49 9799690406993074218
300161 21 18410570690980477423
3004659 81 11527946768613086278
3472631 163 17775001336604012956
4058900 60 15984837999405760663
4340502 62 16515402958774975538
445580 37 16415484839859333305
465052 167 8069737520469121530
5104073 3 17241598425447547152
543368 44 17989487403777824217
559249 180 12829206672936996353
5758199 1 18342460327223560859
59682541 35 17603872238275469649
59682541 52 14476967770527799668
59755656 215 11240004446774595092
6438161 24 12607408759186629884

> <PUBCHEM_SHAPE_MULTIPOLES>
435.8
20.98
1.64
1.39
2.34
0.4
0.24
-13.57
2.26
-0.51
0.3
0.03
-0.21
-0.42

> <PUBCHEM_SHAPE_SELFOVERLAP>
907.648

> <PUBCHEM_SHAPE_VOLUME>
245.2

> <PUBCHEM_COORDINATE_TYPE>
2
5
10

$$$$
