11885871
  -OEChem-12032416413D

 67 72  0     1  0  0  0  0  0999 V2000
    0.7734    3.9635   -0.6294 O   0  0  0  0  0  0  0  0  0  0  0  0
    2.8492   -0.1560   -2.9716 O   0  0  0  0  0  0  0  0  0  0  0  0
   -2.4814    1.2431    1.7049 O   0  0  0  0  0  0  0  0  0  0  0  0
    3.8950    0.0802   -0.8919 N   0  0  0  0  0  0  0  0  0  0  0  0
    2.3242    2.5299    0.3701 N   0  0  0  0  0  0  0  0  0  0  0  0
   -1.2837    3.1023    0.9761 N   0  0  0  0  0  0  0  0  0  0  0  0
    4.7588    2.3638   -0.4094 C   0  0  1  0  0  0  0  0  0  0  0  0
    3.9637    0.9417    1.4363 C   0  0  2  0  0  0  0  0  0  0  0  0
    5.0421    1.9447    1.0291 C   0  0  0  0  0  0  0  0  0  0  0  0
    4.7966    1.1400   -1.3426 C   0  0  0  0  0  0  0  0  0  0  0  0
    3.4056    3.0844   -0.4567 C   0  0  0  0  0  0  0  0  0  0  0  0
    4.0404   -0.2984    0.5231 C   0  0  0  0  0  0  0  0  0  0  0  0
    2.5813    1.5595    1.3441 C   0  0  0  0  0  0  0  0  0  0  0  0
    1.6010    1.1507    2.1670 C   0  0  0  0  0  0  0  0  0  0  0  0
    1.0442    3.0956    0.2017 C   0  0  0  0  0  0  0  0  0  0  0  0
    2.9753   -0.4682   -1.7888 C   0  0  0  0  0  0  0  0  0  0  0  0
   -0.0268    2.5930    1.1197 C   0  0  0  0  0  0  0  0  0  0  0  0
    0.2713    1.6790    2.0491 C   0  0  0  0  0  0  0  0  0  0  0  0
    2.0570   -1.4963   -1.2884 C   0  0  0  0  0  0  0  0  0  0  0  0
    2.4224   -2.8388   -1.3473 C   0  0  0  0  0  0  0  0  0  0  0  0
    0.8242   -1.1257   -0.7570 C   0  0  0  0  0  0  0  0  0  0  0  0
   -2.4411    2.3944    1.2777 C   0  0  0  0  0  0  0  0  0  0  0  0
    1.5494   -3.8171   -0.8715 C   0  0  0  0  0  0  0  0  0  0  0  0
   -0.0487   -2.1041   -0.2811 C   0  0  0  0  0  0  0  0  0  0  0  0
    0.3138   -3.4496   -0.3384 C   0  0  0  0  0  0  0  0  0  0  0  0
   -3.6814    3.2283    1.0137 C   0  0  0  0  0  0  0  0  0  0  0  0
   -0.5911   -4.4650    0.1556 C   0  0  0  0  0  0  0  0  0  0  0  0
   -4.6073    2.6160   -0.0038 C   0  0  0  0  0  0  0  0  0  0  0  0
   -0.5278   -4.8659    1.4901 C   0  0  0  0  0  0  0  0  0  0  0  0
   -1.5270   -5.0425   -0.7025 C   0  0  0  0  0  0  0  0  0  0  0  0
   -4.4452    2.9238   -1.3473 C   0  0  0  0  0  0  0  0  0  0  0  0
   -5.6091    1.7524    0.4164 C   0  0  0  0  0  0  0  0  0  0  0  0
   -1.4002   -5.8445    1.9666 C   0  0  0  0  0  0  0  0  0  0  0  0
   -2.3995   -6.0210   -0.2260 C   0  0  0  0  0  0  0  0  0  0  0  0
   -5.3027    2.3566   -2.2900 C   0  0  0  0  0  0  0  0  0  0  0  0
   -6.4665    1.1851   -0.5263 C   0  0  0  0  0  0  0  0  0  0  0  0
   -2.3361   -6.4219    1.1086 C   0  0  0  0  0  0  0  0  0  0  0  0
   -6.3132    1.4872   -1.8796 C   0  0  0  0  0  0  0  0  0  0  0  0
    5.5336    3.0626   -0.7481 H   0  0  0  0  0  0  0  0  0  0  0  0
    4.1617    0.6256    2.4687 H   0  0  0  0  0  0  0  0  0  0  0  0
    6.0373    1.4902    1.1065 H   0  0  0  0  0  0  0  0  0  0  0  0
    5.0341    2.8169    1.6947 H   0  0  0  0  0  0  0  0  0  0  0  0
    4.5603    1.4394   -2.3693 H   0  0  0  0  0  0  0  0  0  0  0  0
    5.8067    0.7126   -1.3560 H   0  0  0  0  0  0  0  0  0  0  0  0
    3.5453    4.1159   -0.1054 H   0  0  0  0  0  0  0  0  0  0  0  0
    3.0491    3.1645   -1.4913 H   0  0  0  0  0  0  0  0  0  0  0  0
    5.0221   -0.7778    0.6227 H   0  0  0  0  0  0  0  0  0  0  0  0
    3.2957   -1.0389    0.8247 H   0  0  0  0  0  0  0  0  0  0  0  0
    1.7736    0.3916    2.9227 H   0  0  0  0  0  0  0  0  0  0  0  0
   -0.4345    1.3086    2.7828 H   0  0  0  0  0  0  0  0  0  0  0  0
   -1.3668    3.9457    0.4140 H   0  0  0  0  0  0  0  0  0  0  0  0
    3.3831   -3.1350   -1.7603 H   0  0  0  0  0  0  0  0  0  0  0  0
    0.5281   -0.0815   -0.7179 H   0  0  0  0  0  0  0  0  0  0  0  0
    1.8478   -4.8616   -0.9233 H   0  0  0  0  0  0  0  0  0  0  0  0
   -1.0086   -1.7998    0.1299 H   0  0  0  0  0  0  0  0  0  0  0  0
   -3.4215    4.2482    0.7043 H   0  0  0  0  0  0  0  0  0  0  0  0
   -4.2023    3.3462    1.9729 H   0  0  0  0  0  0  0  0  0  0  0  0
    0.1955   -4.4258    2.1725 H   0  0  0  0  0  0  0  0  0  0  0  0
   -1.5900   -4.7414   -1.7456 H   0  0  0  0  0  0  0  0  0  0  0  0
   -3.6595    3.5979   -1.6768 H   0  0  0  0  0  0  0  0  0  0  0  0
   -5.7358    1.5090    1.4675 H   0  0  0  0  0  0  0  0  0  0  0  0
   -1.3510   -6.1567    3.0056 H   0  0  0  0  0  0  0  0  0  0  0  0
   -3.1283   -6.4707   -0.8939 H   0  0  0  0  0  0  0  0  0  0  0  0
   -5.1831    2.5912   -3.3437 H   0  0  0  0  0  0  0  0  0  0  0  0
   -7.2529    0.5076   -0.2070 H   0  0  0  0  0  0  0  0  0  0  0  0
   -3.0155   -7.1838    1.4796 H   0  0  0  0  0  0  0  0  0  0  0  0
   -6.9806    1.0451   -2.6135 H   0  0  0  0  0  0  0  0  0  0  0  0
  1 15  2  0  0  0  0
  2 16  2  0  0  0  0
  3 22  2  0  0  0  0
  4 10  1  0  0  0  0
  4 12  1  0  0  0  0
  4 16  1  0  0  0  0
  5 11  1  0  0  0  0
  5 13  1  0  0  0  0
  5 15  1  0  0  0  0
  6 17  1  0  0  0  0
  6 22  1  0  0  0  0
  6 51  1  0  0  0  0
  7  9  1  0  0  0  0
  7 10  1  0  0  0  0
  7 11  1  0  0  0  0
  7 39  1  0  0  0  0
  8  9  1  0  0  0  0
  8 12  1  0  0  0  0
  8 13  1  0  0  0  0
  8 40  1  0  0  0  0
  9 41  1  0  0  0  0
  9 42  1  0  0  0  0
 10 43  1  0  0  0  0
 10 44  1  0  0  0  0
 11 45  1  0  0  0  0
 11 46  1  0  0  0  0
 12 47  1  0  0  0  0
 12 48  1  0  0  0  0
 13 14  2  0  0  0  0
 14 18  1  0  0  0  0
 14 49  1  0  0  0  0
 15 17  1  0  0  0  0
 16 19  1  0  0  0  0
 17 18  2  0  0  0  0
 18 50  1  0  0  0  0
 19 20  2  0  0  0  0
 19 21  1  0  0  0  0
 20 23  1  0  0  0  0
 20 52  1  0  0  0  0
 21 24  2  0  0  0  0
 21 53  1  0  0  0  0
 22 26  1  0  0  0  0
 23 25  2  0  0  0  0
 23 54  1  0  0  0  0
 24 25  1  0  0  0  0
 24 55  1  0  0  0  0
 25 27  1  0  0  0  0
 26 28  1  0  0  0  0
 26 56  1  0  0  0  0
 26 57  1  0  0  0  0
 27 29  2  0  0  0  0
 27 30  1  0  0  0  0
 28 31  2  0  0  0  0
 28 32  1  0  0  0  0
 29 33  1  0  0  0  0
 29 58  1  0  0  0  0
 30 34  2  0  0  0  0
 30 59  1  0  0  0  0
 31 35  1  0  0  0  0
 31 60  1  0  0  0  0
 32 36  2  0  0  0  0
 32 61  1  0  0  0  0
 33 37  2  0  0  0  0
 33 62  1  0  0  0  0
 34 37  1  0  0  0  0
 34 63  1  0  0  0  0
 35 38  2  0  0  0  0
 35 64  1  0  0  0  0
 36 38  1  0  0  0  0
 36 65  1  0  0  0  0
 37 66  1  0  0  0  0
 38 67  1  0  0  0  0
M  END
> <PUBCHEM_COMPOUND_CID>
11885871

> <PUBCHEM_CONFORMER_RMSD>
1

> <PUBCHEM_CONFORMER_DIVERSEORDER>
1
28
44
14
27
19
46
16
32
39
11
38
23
40
18
13
4
42
9
34
37
31
30
3
5
15
20
35
43
8
29
12
22
7
45
36
25
17
47
6
21
26
24
41
33
2
10
48

> <PUBCHEM_MMFF94_PARTIAL_CHARGES>
51
1 -0.57
10 0.3
11 0.3
12 0.3
13 -0.03
14 -0.15
15 0.62
16 0.54
17 0.12
18 -0.15
19 0.09
2 -0.57
20 -0.15
21 -0.15
22 0.57
23 -0.15
24 -0.15
26 0.2
28 -0.14
29 -0.15
3 -0.57
30 -0.15
31 -0.15
32 -0.15
33 -0.15
34 -0.15
35 -0.15
36 -0.15
37 -0.15
38 -0.15
4 -0.66
49 0.15
5 -0.47
50 0.15
51 0.37
52 0.15
53 0.15
54 0.15
55 0.15
58 0.15
59 0.15
6 -0.54
60 0.15
61 0.15
62 0.15
63 0.15
64 0.15
65 0.15
66 0.15
67 0.15
8 0.14

> <PUBCHEM_EFFECTIVE_ROTOR_COUNT>
8

> <PUBCHEM_PHARMACOPHORE_FEATURES>
10
1 1 acceptor
1 2 acceptor
1 3 acceptor
1 6 donor
6 19 20 21 23 24 25 rings
6 27 29 30 33 34 37 rings
6 28 31 32 35 36 38 rings
6 4 7 8 9 10 12 rings
6 5 13 14 15 17 18 rings
6 5 7 8 9 11 13 rings

> <PUBCHEM_HEAVY_ATOM_COUNT>
38

> <PUBCHEM_ATOM_DEF_STEREO_COUNT>
2

> <PUBCHEM_ATOM_UDEF_STEREO_COUNT>
0

> <PUBCHEM_BOND_DEF_STEREO_COUNT>
0

> <PUBCHEM_BOND_UDEF_STEREO_COUNT>
0

> <PUBCHEM_ISOTOPIC_ATOM_COUNT>
0

> <PUBCHEM_COMPONENT_COUNT>
1

> <PUBCHEM_CACTVS_TAUTO_COUNT>
2

> <PUBCHEM_CONFORMER_ID>
00B55D2F00000001

> <PUBCHEM_MMFF94_ENERGY>
118.653

> <PUBCHEM_FEATURE_SELFOVERLAP>
52.331

> <PUBCHEM_SHAPE_FINGERPRINT>
11991303 11 18261675973044959215
1361 2 18340489971705221521
13636023 20 17405990657013980578
14705955 166 17757254243357473158
15483637 11 18123190370487025933
15484559 13 18270962328073459279
15968369 26 17973147449649994977
16067690 210 17612304556347954715
16993438 75 18194963169713084139
17138139 8 17489009526923634525
19315092 285 17700401490724555873
19319366 153 18268419153895227063
20764821 26 18340484478805345275
20775438 99 18202561757022856454
20775530 9 17042620712369834275
21133410 52 17908412568430793638
23516275 137 16342329937084883749
3103668 31 18051423060836295334
3882209 13 16892000813931856347
4756261 7 17689404141286030858
6609424 69 17622456346927278302
6700243 42 16013583563205391345
86090 222 18201430394386949033
9831353 338 17398647483062065631

> <PUBCHEM_SHAPE_MULTIPOLES>
749.47
11.38
9.81
2.18
12.53
21.4
-0.27
-14.15
-4.58
7.9
2.84
0.01
-0.16
2.4

> <PUBCHEM_SHAPE_SELFOVERLAP>
1661.217

> <PUBCHEM_SHAPE_VOLUME>
393.6

> <PUBCHEM_COORDINATE_TYPE>
2
5
10

$$$$
