130314408
  -OEChem-06302411133D

 42 45  0     0  0  0  0  0  0999 V2000
    5.3388   -1.5271    2.5035 Cl  0  0  0  0  0  0  0  0  0  0  0  0
    2.2044    4.4134   -0.4276 Cl  0  0  0  0  0  0  0  0  0  0  0  0
   -5.8703   -0.4915    1.3164 S   0  0  0  0  0  0  0  0  0  0  0  0
    0.4676   -1.8916   -1.9533 O   0  0  0  0  0  0  0  0  0  0  0  0
   -3.6577   -1.0569    0.1493 N   0  0  0  0  0  0  0  0  0  0  0  0
   -3.5618    1.0551    0.8710 N   0  0  0  0  0  0  0  0  0  0  0  0
   -0.2645   -0.9063   -1.2765 N   0  0  0  0  0  0  0  0  0  0  0  0
   -2.4271   -0.6120   -0.2252 C   0  0  0  0  0  0  0  0  0  0  0  0
   -2.3898    0.6957    0.2312 C   0  0  0  0  0  0  0  0  0  0  0  0
   -4.2804   -0.0302    0.7912 C   0  0  0  0  0  0  0  0  0  0  0  0
   -1.2801    1.5932    0.0722 C   0  0  0  0  0  0  0  0  0  0  0  0
   -4.3833   -2.2196    0.0447 C   0  0  0  0  0  0  0  0  0  0  0  0
   -1.4456   -1.3739   -0.9298 C   0  0  0  0  0  0  0  0  0  0  0  0
   -5.5936   -2.0965    0.6158 C   0  0  0  0  0  0  0  0  0  0  0  0
   -1.1994    2.4089   -1.0564 C   0  0  0  0  0  0  0  0  0  0  0  0
   -0.2832    1.6498    1.0462 C   0  0  0  0  0  0  0  0  0  0  0  0
    2.6301   -1.3780   -1.1062 C   0  0  0  0  0  0  0  0  0  0  0  0
    1.7282   -1.3414   -2.3048 C   0  0  0  0  0  0  0  0  0  0  0  0
    3.9957   -0.2271    0.5210 C   0  0  0  0  0  0  0  0  0  0  0  0
    3.1574   -0.1929   -0.5934 C   0  0  0  0  0  0  0  0  0  0  0  0
   -0.1219    3.2810   -1.2112 C   0  0  0  0  0  0  0  0  0  0  0  0
    0.7943    2.5219    0.8916 C   0  0  0  0  0  0  0  0  0  0  0  0
    2.9414   -2.5975   -0.5048 C   0  0  0  0  0  0  0  0  0  0  0  0
    4.3069   -1.4466    1.1223 C   0  0  0  0  0  0  0  0  0  0  0  0
    0.8750    3.3375   -0.2372 C   0  0  0  0  0  0  0  0  0  0  0  0
    3.7797   -2.6320    0.6094 C   0  0  0  0  0  0  0  0  0  0  0  0
    4.5390    1.0646    1.0405 C   0  0  0  0  0  0  0  0  0  0  0  0
   -3.9847   -3.0948   -0.4451 H   0  0  0  0  0  0  0  0  0  0  0  0
   -1.7010   -2.4156   -1.1952 H   0  0  0  0  0  0  0  0  0  0  0  0
   -6.3438   -2.8731    0.6615 H   0  0  0  0  0  0  0  0  0  0  0  0
   -1.9683    2.3767   -1.8248 H   0  0  0  0  0  0  0  0  0  0  0  0
   -0.3308    1.0199    1.9314 H   0  0  0  0  0  0  0  0  0  0  0  0
    1.6076   -0.3295   -2.7120 H   0  0  0  0  0  0  0  0  0  0  0  0
    2.1599   -1.9563   -3.1024 H   0  0  0  0  0  0  0  0  0  0  0  0
    2.9129    0.7552   -1.0662 H   0  0  0  0  0  0  0  0  0  0  0  0
    2.5385   -3.5278   -0.8966 H   0  0  0  0  0  0  0  0  0  0  0  0
   -0.0719    3.9104   -2.0960 H   0  0  0  0  0  0  0  0  0  0  0  0
    1.5641    2.5547    1.6583 H   0  0  0  0  0  0  0  0  0  0  0  0
    4.0127   -3.5904    1.0665 H   0  0  0  0  0  0  0  0  0  0  0  0
    4.1741    1.2534    2.0554 H   0  0  0  0  0  0  0  0  0  0  0  0
    5.6340    1.0506    1.0423 H   0  0  0  0  0  0  0  0  0  0  0  0
    4.2331    1.9147    0.4214 H   0  0  0  0  0  0  0  0  0  0  0  0
  1 24  1  0  0  0  0
  2 25  1  0  0  0  0
  3 10  1  0  0  0  0
  3 14  1  0  0  0  0
  4  7  1  0  0  0  0
  4 18  1  0  0  0  0
  5  8  1  0  0  0  0
  5 10  1  0  0  0  0
  5 12  1  0  0  0  0
  6  9  1  0  0  0  0
  6 10  2  0  0  0  0
  7 13  2  0  0  0  0
  8  9  2  0  0  0  0
  8 13  1  0  0  0  0
  9 11  1  0  0  0  0
 11 15  2  0  0  0  0
 11 16  1  0  0  0  0
 12 14  2  0  0  0  0
 12 28  1  0  0  0  0
 13 29  1  0  0  0  0
 14 30  1  0  0  0  0
 15 21  1  0  0  0  0
 15 31  1  0  0  0  0
 16 22  2  0  0  0  0
 16 32  1  0  0  0  0
 17 18  1  0  0  0  0
 17 20  2  0  0  0  0
 17 23  1  0  0  0  0
 18 33  1  0  0  0  0
 18 34  1  0  0  0  0
 19 20  1  0  0  0  0
 19 24  2  0  0  0  0
 19 27  1  0  0  0  0
 20 35  1  0  0  0  0
 21 25  2  0  0  0  0
 21 37  1  0  0  0  0
 22 25  1  0  0  0  0
 22 38  1  0  0  0  0
 23 26  2  0  0  0  0
 23 36  1  0  0  0  0
 24 26  1  0  0  0  0
 26 39  1  0  0  0  0
 27 40  1  0  0  0  0
 27 41  1  0  0  0  0
 27 42  1  0  0  0  0
M  END
> <PUBCHEM_COMPOUND_CID>
130314408

> <PUBCHEM_CONFORMER_RMSD>
0.8

> <PUBCHEM_CONFORMER_DIVERSEORDER>
1
95
36
44
37
60
12
30
40
102
7
67
141
53
63
54
76
28
51
22
18
88
35
168
52
114
70
43
98
20
79
10
78
74
3
148
87
13
19
136
66
57
156
8
11
165
149
166
48
2
77
137
5
145
50
24
169
143
42
21
159
14
160
4
99
158
157
135
46
94
29
106
27
126
100
111
123
110
119
62
49
33
152
122
47
26
83
109
128
6
56
38
138
81
32
134
9
129
118
162
116
104
25
108
16
140
15
69
97
117
133
92
147
65
167
45
17
132
73
41
131
130
55
113
150
139
75
59
91
164
107
68
125
85
34
23
64
112
86
120
31
124
163
89
144
142
115
96
58
39
155
127
105
121
161
153
80
103
93
61
90
151
154
71
84
82
101
146
72

> <PUBCHEM_MMFF94_PARTIAL_CHARGES>
37
1 -0.18
10 0.24
11 0.05
12 -0.18
13 0.47
14 -0.05
15 -0.15
16 -0.15
17 -0.14
18 0.42
19 -0.14
2 -0.18
20 -0.15
21 -0.15
22 -0.15
23 -0.15
24 0.18
25 0.18
26 -0.15
27 0.14
28 0.15
29 0.06
3 -0.16
30 0.15
31 0.15
32 0.15
35 0.15
36 0.15
37 0.15
38 0.15
39 0.15
4 -0.22
5 0.33
6 -0.57
7 -0.51
8 -0.24
9 0.17

> <PUBCHEM_EFFECTIVE_ROTOR_COUNT>
5

> <PUBCHEM_PHARMACOPHORE_FEATURES>
6
1 7 acceptor
3 5 6 10 cation
5 3 5 10 12 14 rings
5 5 6 8 9 10 rings
6 11 15 16 21 22 25 rings
6 17 19 20 23 24 26 rings

> <PUBCHEM_HEAVY_ATOM_COUNT>
27

> <PUBCHEM_ATOM_DEF_STEREO_COUNT>
0

> <PUBCHEM_ATOM_UDEF_STEREO_COUNT>
0

> <PUBCHEM_BOND_DEF_STEREO_COUNT>
1

> <PUBCHEM_BOND_UDEF_STEREO_COUNT>
0

> <PUBCHEM_ISOTOPIC_ATOM_COUNT>
0

> <PUBCHEM_COMPONENT_COUNT>
1

> <PUBCHEM_CACTVS_TAUTO_COUNT>
2

> <PUBCHEM_CONFORMER_ID>
07C470A800000001

> <PUBCHEM_MMFF94_ENERGY>
65.7466

> <PUBCHEM_FEATURE_SELFOVERLAP>
30.7

> <PUBCHEM_SHAPE_FINGERPRINT>
11578080 2 17749660870496137341
11963148 33 17402048298312864891
12035758 1 18194127318160420657
12107183 9 18339091397942985305
12422481 6 18273493451100791003
12553582 1 18412824690144193212
12895836 83 11167642309675148066
12895837 130 12678020589765590250
13140716 1 17911234245483087500
13583140 156 18050834542890378446
14004853 49 17905592660397440856
14840074 17 18268708484420096244
15163728 17 11312057677352005931
15475509 35 17460904983884784435
15840311 113 16556520188934653481
15927050 60 17765161961286001814
16120349 306 17838890791676754752
17492 89 18190737532196070210
1813 80 18261402147779867425
19301679 30 18263935513481794129
1979834 28 17775294849909999495
21033648 29 17274826801095581843
21304303 282 17248336125761114517
21421861 104 18269575968797415153
23366157 5 18118138085062596629
23419403 2 18188195585681821605
23559900 14 17912664418190822319
3187 122 18267020566061067060
3411729 13 18196946688694866661
392239 28 18408318865492291706
469060 322 18337964367831333818
484985 159 16305670901392861946
50009960 94 17970891483212611755
6823239 73 17845117141256204700
90316 7 18194128421227868189

> <PUBCHEM_SHAPE_MULTIPOLES>
542.42
11.32
4.44
1.76
6.63
4.61
0.13
-9.27
-7.11
-2.75
0.75
-1.54
-0.76
-0.32

> <PUBCHEM_SHAPE_SELFOVERLAP>
1160.702

> <PUBCHEM_SHAPE_VOLUME>
305.7

> <PUBCHEM_COORDINATE_TYPE>
2
5
10

