141519298
  -OEChem-06302411133D

 36 39  0     0  0  0  0  0  0999 V2000
    2.4182    4.1667    0.2847 Cl  0  0  0  0  0  0  0  0  0  0  0  0
    4.2909    1.1755   -1.1963 Cl  0  0  0  0  0  0  0  0  0  0  0  0
    6.4939   -0.7700    0.1582 Cl  0  0  0  0  0  0  0  0  0  0  0  0
   -6.1297   -0.2051   -0.0646 S   0  0  0  0  0  0  0  0  0  0  0  0
    0.8179   -2.3414   -0.0407 O   0  0  0  0  0  0  0  0  0  0  0  0
   -3.7025   -1.0333   -0.0587 N   0  0  0  0  0  0  0  0  0  0  0  0
   -3.6927    1.1983    0.0430 N   0  0  0  0  0  0  0  0  0  0  0  0
   -0.0246   -1.2230   -0.0049 N   0  0  0  0  0  0  0  0  0  0  0  0
   -2.3865   -0.6881   -0.0193 C   0  0  0  0  0  0  0  0  0  0  0  0
   -2.4045    0.6960    0.0434 C   0  0  0  0  0  0  0  0  0  0  0  0
   -4.4242    0.1205   -0.0193 C   0  0  0  0  0  0  0  0  0  0  0  0
   -1.2396    1.5338    0.1019 C   0  0  0  0  0  0  0  0  0  0  0  0
   -4.4382   -2.1925   -0.1247 C   0  0  0  0  0  0  0  0  0  0  0  0
   -1.2861   -1.5985   -0.0428 C   0  0  0  0  0  0  0  0  0  0  0  0
   -5.7575   -1.9370   -0.1368 C   0  0  0  0  0  0  0  0  0  0  0  0
   -0.6530    1.9955   -1.0764 C   0  0  0  0  0  0  0  0  0  0  0  0
   -0.6950    1.8866    1.3367 C   0  0  0  0  0  0  0  0  0  0  0  0
    0.4781    2.8096   -1.0201 C   0  0  0  0  0  0  0  0  0  0  0  0
    0.4361    2.7007    1.3932 C   0  0  0  0  0  0  0  0  0  0  0  0
    1.0228    3.1622    0.2148 C   0  0  0  0  0  0  0  0  0  0  0  0
    2.1393   -1.9611   -0.0016 C   0  0  0  0  0  0  0  0  0  0  0  0
    2.5297   -0.7374   -0.5454 C   0  0  0  0  0  0  0  0  0  0  0  0
    3.0891   -2.7999    0.5817 C   0  0  0  0  0  0  0  0  0  0  0  0
    3.8697   -0.3522   -0.5056 C   0  0  0  0  0  0  0  0  0  0  0  0
    4.4291   -2.4148    0.6215 C   0  0  0  0  0  0  0  0  0  0  0  0
    4.8194   -1.1909    0.0779 C   0  0  0  0  0  0  0  0  0  0  0  0
   -3.9664   -3.1625   -0.1604 H   0  0  0  0  0  0  0  0  0  0  0  0
   -1.5160   -2.6779   -0.0955 H   0  0  0  0  0  0  0  0  0  0  0  0
   -6.5373   -2.6839   -0.1847 H   0  0  0  0  0  0  0  0  0  0  0  0
   -1.0649    1.7290   -2.0469 H   0  0  0  0  0  0  0  0  0  0  0  0
   -1.1404    1.5348    2.2644 H   0  0  0  0  0  0  0  0  0  0  0  0
    0.9257    3.1607   -1.9463 H   0  0  0  0  0  0  0  0  0  0  0  0
    0.8500    2.9670    2.3623 H   0  0  0  0  0  0  0  0  0  0  0  0
    1.8110   -0.0827   -1.0308 H   0  0  0  0  0  0  0  0  0  0  0  0
    2.7904   -3.7542    1.0067 H   0  0  0  0  0  0  0  0  0  0  0  0
    5.1557   -3.0808    1.0801 H   0  0  0  0  0  0  0  0  0  0  0  0
  1 20  1  0  0  0  0
  2 24  1  0  0  0  0
  3 26  1  0  0  0  0
  4 11  1  0  0  0  0
  4 15  1  0  0  0  0
  5  8  1  0  0  0  0
  5 21  1  0  0  0  0
  6  9  1  0  0  0  0
  6 11  1  0  0  0  0
  6 13  1  0  0  0  0
  7 10  1  0  0  0  0
  7 11  2  0  0  0  0
  8 14  2  3  0  0  0
  9 10  2  0  0  0  0
  9 14  1  0  0  0  0
 10 12  1  0  0  0  0
 12 16  2  0  0  0  0
 12 17  1  0  0  0  0
 13 15  2  0  0  0  0
 13 27  1  0  0  0  0
 14 28  1  0  0  0  0
 15 29  1  0  0  0  0
 16 18  1  0  0  0  0
 16 30  1  0  0  0  0
 17 19  2  0  0  0  0
 17 31  1  0  0  0  0
 18 20  2  0  0  0  0
 18 32  1  0  0  0  0
 19 20  1  0  0  0  0
 19 33  1  0  0  0  0
 21 22  2  0  0  0  0
 21 23  1  0  0  0  0
 22 24  1  0  0  0  0
 22 34  1  0  0  0  0
 23 25  2  0  0  0  0
 23 35  1  0  0  0  0
 24 26  2  0  0  0  0
 25 26  1  0  0  0  0
 25 36  1  0  0  0  0
M  END
> <PUBCHEM_COMPOUND_CID>
141519298

> <PUBCHEM_CONFORMER_RMSD>
0.8

> <PUBCHEM_CONFORMER_DIVERSEORDER>
1
22
41
5
40
23
29
50
11
51
6
49
4
26
10
24
3
52
54
28
53
8
2
27
46
9
48
32
55
18
7
39
14
34
38
42
13
31
47
25
19
44
12
35
16
20
30
33
15
17
21
43
36
45
37

> <PUBCHEM_MMFF94_PARTIAL_CHARGES>
36
1 -0.18
10 0.17
11 0.24
12 0.05
13 -0.18
14 0.47
15 -0.05
16 -0.15
17 -0.15
18 -0.15
19 -0.15
2 -0.18
20 0.18
21 0.08
22 -0.15
23 -0.15
24 0.18
25 -0.15
26 0.18
27 0.15
28 0.06
29 0.15
3 -0.18
30 0.15
31 0.15
32 0.15
33 0.15
34 0.15
35 0.15
36 0.15
4 -0.16
5 -0.02
6 0.33
7 -0.57
8 -0.51
9 -0.24

> <PUBCHEM_EFFECTIVE_ROTOR_COUNT>
4

> <PUBCHEM_PHARMACOPHORE_FEATURES>
6
1 8 acceptor
3 6 7 11 cation
5 4 6 11 13 15 rings
5 6 7 9 10 11 rings
6 12 16 17 18 19 20 rings
6 21 22 23 24 25 26 rings

> <PUBCHEM_HEAVY_ATOM_COUNT>
26

> <PUBCHEM_ATOM_DEF_STEREO_COUNT>
0

> <PUBCHEM_ATOM_UDEF_STEREO_COUNT>
0

> <PUBCHEM_BOND_DEF_STEREO_COUNT>
0

> <PUBCHEM_BOND_UDEF_STEREO_COUNT>
1

> <PUBCHEM_ISOTOPIC_ATOM_COUNT>
0

> <PUBCHEM_COMPONENT_COUNT>
1

> <PUBCHEM_CACTVS_TAUTO_COUNT>
-1

> <PUBCHEM_CONFORMER_ID>
086F69C200000001

> <PUBCHEM_MMFF94_ENERGY>
67.1888

> <PUBCHEM_FEATURE_SELFOVERLAP>
30.7

> <PUBCHEM_SHAPE_FINGERPRINT>
10670039 82 18265629689138681646
1100329 8 18340206417964079630
11045515 52 18261393282782635349
11112241 14 16770964804414578152
11135609 187 18263650743411358540
11578080 2 17677032574257461333
11963148 33 17474944802548191727
12156800 1 15938341847268846932
12166972 35 18041001734977951774
13402501 40 18411696599983306008
13533116 47 18200030802115965553
1361 2 18117564140009410268
138480 1 18410854382376648888
14028597 1 17557731306151879009
14394314 77 18339085895857919384
14787075 74 18261115174896962243
14790565 3 17403459577105172193
14931854 50 18266477541062390980
15196674 1 18409168796427435158
15927050 60 17765715007192395014
167882 2 18192714659728276881
17492 54 18116168812439978916
17980427 26 17342357916352912705
18336668 15 18259706696480867636
18681886 176 18413105057463063522
19611394 137 18188504587030754714
20642791 178 18335435564439710421
20715895 44 17611741215489088861
23352939 185 18342741801646267147
23557571 272 18129383691958938990
23559900 14 18264483052839446557
3004659 81 18187083940845026590
335352 9 18411415091205948389
3421961 26 18411134779153063937
350125 39 18410860945925401705
3680242 22 18337400326697658522
392239 28 18342457020109416368
469060 322 18340495448099059328
5265222 85 17329152880334901580
6669772 16 18051972816624413276

> <PUBCHEM_SHAPE_MULTIPOLES>
523.71
12.64
4.34
0.97
3.74
3.11
-0.04
-8.92
0.63
-3.09
-0.62
-0.42
0.54
-0.69

> <PUBCHEM_SHAPE_SELFOVERLAP>
1118.888

> <PUBCHEM_SHAPE_VOLUME>
296.2

> <PUBCHEM_COORDINATE_TYPE>
2
5
10

