142505419
  -OEChem-06302411133D

 45 49  0     0  0  0  0  0  0999 V2000
    3.8233   -4.3775    1.2533 Cl  0  0  0  0  0  0  0  0  0  0  0  0
    5.1615   -1.6004    2.2377 Cl  0  0  0  0  0  0  0  0  0  0  0  0
   -6.0721   -0.4180    1.4330 S   0  0  0  0  0  0  0  0  0  0  0  0
    0.0922   -2.1780   -1.9909 O   0  0  0  0  0  0  0  0  0  0  0  0
   -3.9231   -1.1103    0.2165 N   0  0  0  0  0  0  0  0  0  0  0  0
   -3.7430    1.0349    0.8132 N   0  0  0  0  0  0  0  0  0  0  0  0
   -0.5862   -1.1361   -1.3437 N   0  0  0  0  0  0  0  0  0  0  0  0
   -2.6072    0.6072    0.1506 C   0  0  0  0  0  0  0  0  0  0  0  0
   -1.4812    1.4625   -0.1012 C   0  0  0  0  0  0  0  0  0  0  0  0
   -2.6969   -0.7221   -0.2293 C   0  0  0  0  0  0  0  0  0  0  0  0
   -4.4925   -0.0321    0.8224 C   0  0  0  0  0  0  0  0  0  0  0  0
    0.6632    2.3743    0.5982 C   0  0  0  0  0  0  0  0  0  0  0  0
   -0.4450    1.5431    0.8297 C   0  0  0  0  0  0  0  0  0  0  0  0
    0.7211    3.1343   -0.5943 C   0  0  0  0  0  0  0  0  0  0  0  0
   -1.4241    2.2099   -1.2738 C   0  0  0  0  0  0  0  0  0  0  0  0
   -0.3307    3.0407   -1.5201 C   0  0  0  0  0  0  0  0  0  0  0  0
   -4.6827   -2.2559    0.2056 C   0  0  0  0  0  0  0  0  0  0  0  0
   -1.7645   -1.5498   -0.9263 C   0  0  0  0  0  0  0  0  0  0  0  0
    1.7149    2.4678    1.5241 C   0  0  0  0  0  0  0  0  0  0  0  0
    1.8292    3.9655   -0.8258 C   0  0  0  0  0  0  0  0  0  0  0  0
   -5.8657   -2.0666    0.8144 C   0  0  0  0  0  0  0  0  0  0  0  0
    2.8082    3.2988    1.2778 C   0  0  0  0  0  0  0  0  0  0  0  0
    2.8653    4.0462    0.1052 C   0  0  0  0  0  0  0  0  0  0  0  0
    1.3520   -1.6844   -2.4207 C   0  0  0  0  0  0  0  0  0  0  0  0
    2.2994   -1.6801   -1.2572 C   0  0  0  0  0  0  0  0  0  0  0  0
    2.6029   -2.8724   -0.5997 C   0  0  0  0  0  0  0  0  0  0  0  0
    2.8772   -0.4834   -0.8334 C   0  0  0  0  0  0  0  0  0  0  0  0
    3.4843   -2.8679    0.4814 C   0  0  0  0  0  0  0  0  0  0  0  0
    3.7583   -0.4789    0.2481 C   0  0  0  0  0  0  0  0  0  0  0  0
    4.0620   -1.6711    0.9054 C   0  0  0  0  0  0  0  0  0  0  0  0
   -0.4950    0.9549    1.7454 H   0  0  0  0  0  0  0  0  0  0  0  0
   -2.2236    2.1578   -2.0092 H   0  0  0  0  0  0  0  0  0  0  0  0
   -0.3069    3.6156   -2.4436 H   0  0  0  0  0  0  0  0  0  0  0  0
   -4.3270   -3.1679   -0.2487 H   0  0  0  0  0  0  0  0  0  0  0  0
   -2.0575   -2.5970   -1.1222 H   0  0  0  0  0  0  0  0  0  0  0  0
    1.6925    1.8914    2.4466 H   0  0  0  0  0  0  0  0  0  0  0  0
    1.8951    4.5583   -1.7357 H   0  0  0  0  0  0  0  0  0  0  0  0
   -6.6338   -2.8178    0.9326 H   0  0  0  0  0  0  0  0  0  0  0  0
    3.6157    3.3607    2.0014 H   0  0  0  0  0  0  0  0  0  0  0  0
    3.7170    4.6923   -0.0861 H   0  0  0  0  0  0  0  0  0  0  0  0
    1.2423   -0.6934   -2.8790 H   0  0  0  0  0  0  0  0  0  0  0  0
    1.7354   -2.3545   -3.1983 H   0  0  0  0  0  0  0  0  0  0  0  0
    2.1518   -3.8034   -0.9361 H   0  0  0  0  0  0  0  0  0  0  0  0
    2.6523    0.4518   -1.3388 H   0  0  0  0  0  0  0  0  0  0  0  0
    4.2038    0.4613    0.5625 H   0  0  0  0  0  0  0  0  0  0  0  0
  1 28  1  0  0  0  0
  2 30  1  0  0  0  0
  3 11  1  0  0  0  0
  3 21  1  0  0  0  0
  4  7  1  0  0  0  0
  4 24  1  0  0  0  0
  5 10  1  0  0  0  0
  5 11  1  0  0  0  0
  5 17  1  0  0  0  0
  6  8  1  0  0  0  0
  6 11  2  0  0  0  0
  7 18  2  0  0  0  0
  8  9  1  0  0  0  0
  8 10  2  0  0  0  0
  9 13  2  0  0  0  0
  9 15  1  0  0  0  0
 10 18  1  0  0  0  0
 12 13  1  0  0  0  0
 12 14  1  0  0  0  0
 12 19  2  0  0  0  0
 13 31  1  0  0  0  0
 14 16  1  0  0  0  0
 14 20  2  0  0  0  0
 15 16  2  0  0  0  0
 15 32  1  0  0  0  0
 16 33  1  0  0  0  0
 17 21  2  0  0  0  0
 17 34  1  0  0  0  0
 18 35  1  0  0  0  0
 19 22  1  0  0  0  0
 19 36  1  0  0  0  0
 20 23  1  0  0  0  0
 20 37  1  0  0  0  0
 21 38  1  0  0  0  0
 22 23  2  0  0  0  0
 22 39  1  0  0  0  0
 23 40  1  0  0  0  0
 24 25  1  0  0  0  0
 24 41  1  0  0  0  0
 24 42  1  0  0  0  0
 25 26  2  0  0  0  0
 25 27  1  0  0  0  0
 26 28  1  0  0  0  0
 26 43  1  0  0  0  0
 27 29  2  0  0  0  0
 27 44  1  0  0  0  0
 28 30  2  0  0  0  0
 29 30  1  0  0  0  0
 29 45  1  0  0  0  0
M  END
> <PUBCHEM_COMPOUND_CID>
142505419

> <PUBCHEM_CONFORMER_RMSD>
1

> <PUBCHEM_CONFORMER_DIVERSEORDER>
1
34
90
172
143
47
167
123
20
124
32
169
16
6
95
49
50
45
159
162
105
72
101
158
36
8
140
33
18
89
27
28
165
12
22
48
115
157
21
147
26
106
99
65
102
29
51
138
109
107
125
160
35
14
19
132
31
117
98
57
91
120
103
23
80
110
25
121
4
151
30
144
108
55
75
85
130
133
38
135
53
15
3
148
66
141
13
42
70
122
78
9
146
149
43
73
112
2
77
79
86
76
161
126
173
10
139
61
71
74
154
164
83
67
5
156
166
81
82
118
96
60
11
155
7
129
163
128
100
171
52
93
168
84
69
170
68
113
97
87
39
59
40
116
134
142
153
119
136
137
17
92
46
111
88
63
104
150
145
54
127
64
58
41
131
24
44
37
56
152
62
94
114

> <PUBCHEM_MMFF94_PARTIAL_CHARGES>
41
1 -0.18
10 -0.24
11 0.24
13 -0.15
15 -0.15
16 -0.15
17 -0.18
18 0.47
19 -0.15
2 -0.18
20 -0.15
21 -0.05
22 -0.15
23 -0.15
24 0.42
25 -0.14
26 -0.15
27 -0.15
28 0.18
29 -0.15
3 -0.16
30 0.18
31 0.15
32 0.15
33 0.15
34 0.15
35 0.06
36 0.15
37 0.15
38 0.15
39 0.15
4 -0.22
40 0.15
43 0.15
44 0.15
45 0.15
5 0.33
6 -0.57
7 -0.51
8 0.17
9 0.05

> <PUBCHEM_EFFECTIVE_ROTOR_COUNT>
5

> <PUBCHEM_PHARMACOPHORE_FEATURES>
7
1 7 acceptor
3 5 6 11 cation
5 3 5 11 17 21 rings
5 5 6 8 10 11 rings
6 12 14 19 20 22 23 rings
6 25 26 27 28 29 30 rings
6 9 12 13 14 15 16 rings

> <PUBCHEM_HEAVY_ATOM_COUNT>
30

> <PUBCHEM_ATOM_DEF_STEREO_COUNT>
0

> <PUBCHEM_ATOM_UDEF_STEREO_COUNT>
0

> <PUBCHEM_BOND_DEF_STEREO_COUNT>
1

> <PUBCHEM_BOND_UDEF_STEREO_COUNT>
0

> <PUBCHEM_ISOTOPIC_ATOM_COUNT>
0

> <PUBCHEM_COMPONENT_COUNT>
1

> <PUBCHEM_CACTVS_TAUTO_COUNT>
-1

> <PUBCHEM_CONFORMER_ID>
087E75CB00000001

> <PUBCHEM_MMFF94_ENERGY>
78.1799

> <PUBCHEM_FEATURE_SELFOVERLAP>
35.802

> <PUBCHEM_SHAPE_FINGERPRINT>
11578080 2 17822281393033710109
11963148 33 17619349149455512671
12035758 1 18121787128064398193
12107183 9 18268723714595739857
12156800 1 15937785489836854973
12422481 6 18270100409810134936
12788726 201 17902533496730520822
133893 2 18198602497466246431
14004853 49 17979056512542866944
14863182 85 18119534494372923180
15420108 30 17773032183649408943
15475509 35 17679333946768754515
16120349 306 17839452633354280512
17138139 8 11056332137941317680
1813 80 18261120655654812681
19309040 13 14475526418232224250
1979834 28 17632585907241667775
20775530 9 18338518526007889590
21033648 29 16916225434609242371
21133410 52 18124014983672739398
21421861 104 18270976724967534369
22956985 138 18335137626410417818
23366157 5 18191038974417171973
3187 122 18195245520704575148
3411729 13 18198916992257152993
3421961 26 18409451414060826817
469060 322 18265627480712887530
50009960 94 18042669771295642995
508706 21 17190663373756457790
5265222 85 17548430652914740468
57527585 103 17549548409710406116
6823239 73 17701846343682125204

> <PUBCHEM_SHAPE_MULTIPOLES>
604.16
10.75
5.76
1.84
11.72
2.81
0.32
-10.08
-6.76
-6.82
-0.2
-1.08
-0.51
-0.04

> <PUBCHEM_SHAPE_SELFOVERLAP>
1319.011

> <PUBCHEM_SHAPE_VOLUME>
332.7

> <PUBCHEM_COORDINATE_TYPE>
2
5
10

