142505355
  -OEChem-06302411133D

 39 42  0     0  0  0  0  0  0999 V2000
    2.3676    4.4869   -0.4565 Br  0  0  0  0  0  0  0  0  0  0  0  0
    4.6244    1.2208    1.1015 Cl  0  0  0  0  0  0  0  0  0  0  0  0
    5.3203   -1.6150    2.4980 Cl  0  0  0  0  0  0  0  0  0  0  0  0
   -5.8807   -0.4450    1.3225 S   0  0  0  0  0  0  0  0  0  0  0  0
    0.4397   -1.9092   -1.9529 O   0  0  0  0  0  0  0  0  0  0  0  0
   -3.6750   -1.0327    0.1536 N   0  0  0  0  0  0  0  0  0  0  0  0
   -3.5586    1.0795    0.8715 N   0  0  0  0  0  0  0  0  0  0  0  0
   -0.2823   -0.9160   -1.2769 N   0  0  0  0  0  0  0  0  0  0  0  0
   -2.4408   -0.5999   -0.2234 C   0  0  0  0  0  0  0  0  0  0  0  0
   -2.3908    0.7081    0.2309 C   0  0  0  0  0  0  0  0  0  0  0  0
   -4.2872    0.0008    0.7946 C   0  0  0  0  0  0  0  0  0  0  0  0
   -1.2733    1.5948    0.0689 C   0  0  0  0  0  0  0  0  0  0  0  0
   -4.4115   -2.1889    0.0518 C   0  0  0  0  0  0  0  0  0  0  0  0
   -1.4673   -1.3720   -0.9278 C   0  0  0  0  0  0  0  0  0  0  0  0
   -5.6198   -2.0536    0.6244 C   0  0  0  0  0  0  0  0  0  0  0  0
   -1.1859    2.4081   -1.0610 C   0  0  0  0  0  0  0  0  0  0  0  0
   -0.2754    1.6440    1.0423 C   0  0  0  0  0  0  0  0  0  0  0  0
   -0.1008    3.2703   -1.2176 C   0  0  0  0  0  0  0  0  0  0  0  0
    0.8098    2.5062    0.8858 C   0  0  0  0  0  0  0  0  0  0  0  0
    2.6080   -1.4142   -1.1095 C   0  0  0  0  0  0  0  0  0  0  0  0
    1.7048   -1.3713   -2.3070 C   0  0  0  0  0  0  0  0  0  0  0  0
    0.8971    3.3193   -0.2442 C   0  0  0  0  0  0  0  0  0  0  0  0
    3.1479   -0.2339   -0.5985 C   0  0  0  0  0  0  0  0  0  0  0  0
    2.9080   -2.6363   -0.5074 C   0  0  0  0  0  0  0  0  0  0  0  0
    3.9873   -0.2755    0.5145 C   0  0  0  0  0  0  0  0  0  0  0  0
    3.7474   -2.6779    0.6057 C   0  0  0  0  0  0  0  0  0  0  0  0
    4.2872   -1.4975    1.1167 C   0  0  0  0  0  0  0  0  0  0  0  0
   -4.0216   -3.0686   -0.4370 H   0  0  0  0  0  0  0  0  0  0  0  0
   -1.7326   -2.4117   -1.1911 H   0  0  0  0  0  0  0  0  0  0  0  0
   -6.3771   -2.8232    0.6724 H   0  0  0  0  0  0  0  0  0  0  0  0
   -1.9556    2.3817   -1.8288 H   0  0  0  0  0  0  0  0  0  0  0  0
   -0.3285    1.0164    1.9289 H   0  0  0  0  0  0  0  0  0  0  0  0
   -0.0476    3.8971   -2.1040 H   0  0  0  0  0  0  0  0  0  0  0  0
    1.5775    2.5333    1.6545 H   0  0  0  0  0  0  0  0  0  0  0  0
    1.5931   -0.3589   -2.7154 H   0  0  0  0  0  0  0  0  0  0  0  0
    2.1298   -1.9913   -3.1043 H   0  0  0  0  0  0  0  0  0  0  0  0
    2.9131    0.7167   -1.0719 H   0  0  0  0  0  0  0  0  0  0  0  0
    2.4954   -3.5628   -0.8978 H   0  0  0  0  0  0  0  0  0  0  0  0
    3.9708   -3.6390    1.0621 H   0  0  0  0  0  0  0  0  0  0  0  0
  1 22  1  0  0  0  0
  2 25  1  0  0  0  0
  3 27  1  0  0  0  0
  4 11  1  0  0  0  0
  4 15  1  0  0  0  0
  5  8  1  0  0  0  0
  5 21  1  0  0  0  0
  6  9  1  0  0  0  0
  6 11  1  0  0  0  0
  6 13  1  0  0  0  0
  7 10  1  0  0  0  0
  7 11  2  0  0  0  0
  8 14  2  0  0  0  0
  9 10  2  0  0  0  0
  9 14  1  0  0  0  0
 10 12  1  0  0  0  0
 12 16  2  0  0  0  0
 12 17  1  0  0  0  0
 13 15  2  0  0  0  0
 13 28  1  0  0  0  0
 14 29  1  0  0  0  0
 15 30  1  0  0  0  0
 16 18  1  0  0  0  0
 16 31  1  0  0  0  0
 17 19  2  0  0  0  0
 17 32  1  0  0  0  0
 18 22  2  0  0  0  0
 18 33  1  0  0  0  0
 19 22  1  0  0  0  0
 19 34  1  0  0  0  0
 20 21  1  0  0  0  0
 20 23  2  0  0  0  0
 20 24  1  0  0  0  0
 21 35  1  0  0  0  0
 21 36  1  0  0  0  0
 23 25  1  0  0  0  0
 23 37  1  0  0  0  0
 24 26  2  0  0  0  0
 24 38  1  0  0  0  0
 25 27  2  0  0  0  0
 26 27  1  0  0  0  0
 26 39  1  0  0  0  0
M  END
> <PUBCHEM_COMPOUND_CID>
142505355

> <PUBCHEM_CONFORMER_RMSD>
0.8

> <PUBCHEM_CONFORMER_DIVERSEORDER>
1
78
125
25
66
7
16
116
32
47
97
126
138
43
177
162
51
65
62
8
130
55
6
96
10
21
179
141
70
37
173
20
85
39
156
150
18
158
81
157
68
147
183
22
58
13
149
19
5
168
90
30
74
12
134
153
40
133
111
57
41
151
131
44
112
185
164
170
108
28
4
137
15
54
135
9
17
113
118
93
182
165
64
26
180
2
178
163
161
100
175
105
48
83
49
80
71
99
143
3
123
114
11
23
172
129
171
166
144
29
94
82
140
67
33
154
142
61
104
24
152
106
136
101
148
95
59
169
88
160
72
63
79
35
91
145
107
34
117
127
92
56
128
50
84
122
42
69
52
181
176
167
60
184
14
77
121
46
124
89
109
103
139
45
174
75
31
76
38
119
132
98
36
53
73
87
155
102
86
120
146
159
115
27
110

> <PUBCHEM_MMFF94_PARTIAL_CHARGES>
37
1 -0.11
10 0.17
11 0.24
12 0.05
13 -0.18
14 0.47
15 -0.05
16 -0.15
17 -0.15
18 -0.15
19 -0.15
2 -0.18
20 -0.14
21 0.42
22 0.11
23 -0.15
24 -0.15
25 0.18
26 -0.15
27 0.18
28 0.15
29 0.06
3 -0.18
30 0.15
31 0.15
32 0.15
33 0.15
34 0.15
37 0.15
38 0.15
39 0.15
4 -0.16
5 -0.22
6 0.33
7 -0.57
8 -0.51
9 -0.24

> <PUBCHEM_EFFECTIVE_ROTOR_COUNT>
5

> <PUBCHEM_PHARMACOPHORE_FEATURES>
7
1 1 hydrophobe
1 8 acceptor
3 6 7 11 cation
5 4 6 11 13 15 rings
5 6 7 9 10 11 rings
6 12 16 17 18 19 22 rings
6 20 23 24 25 26 27 rings

> <PUBCHEM_HEAVY_ATOM_COUNT>
27

> <PUBCHEM_ATOM_DEF_STEREO_COUNT>
0

> <PUBCHEM_ATOM_UDEF_STEREO_COUNT>
0

> <PUBCHEM_BOND_DEF_STEREO_COUNT>
1

> <PUBCHEM_BOND_UDEF_STEREO_COUNT>
0

> <PUBCHEM_ISOTOPIC_ATOM_COUNT>
0

> <PUBCHEM_COMPONENT_COUNT>
1

> <PUBCHEM_CACTVS_TAUTO_COUNT>
-1

> <PUBCHEM_CONFORMER_ID>
087E758B00000001

> <PUBCHEM_MMFF94_ENERGY>
63.8924

> <PUBCHEM_FEATURE_SELFOVERLAP>
35.774

> <PUBCHEM_SHAPE_FINGERPRINT>
11578080 2 17821999939542437429
11963148 33 17402330868522060267
12035758 1 18194127313865446873
12107183 9 18339091389331977689
12422481 6 18201434757503782003
12895836 83 11167642309675174066
12895837 130 12677738015271983562
13140716 1 17910953874307723156
13583140 156 18050553063623968702
14004853 49 17834098016281266368
14840074 17 18268708480109298204
15163728 17 11312057677357300163
15297060 5 17202494475590573662
15475509 35 17460904983905915923
15840311 113 16556519089417776929
15927050 60 17765161956959418502
16120349 306 17838890787392336944
17492 89 18190738627375865882
1813 80 18261119573291535481
19301679 30 18263652934682735577
19309040 13 14834694011995327680
1979834 28 17775294849909999487
21033648 29 17274826796774292691
21304303 282 17248336121471408989
21421861 104 18269575964486636593
23366157 5 18118138080772910581
23419403 2 18188196680898488581
23559900 14 17986136057507529791
3187 122 18267021661272478788
3411729 13 18196946684399892877
392239 28 18336260171958566738
469060 322 18266188244475149250
484985 159 16233614406871843042
6823239 73 17845117136966505660
90316 7 18194127317363237869

> <PUBCHEM_SHAPE_MULTIPOLES>
548.37
11.37
4.62
1.76
7.71
4.75
0.14
-8.82
-7.13
-3.74
0.78
-1.49
-0.8
-0.46

> <PUBCHEM_SHAPE_SELFOVERLAP>
1159.903

> <PUBCHEM_SHAPE_VOLUME>
317.2

> <PUBCHEM_COORDINATE_TYPE>
2
5
10

