142505466
  -OEChem-06302411133D

 49 52  0     1  0  0  0  0  0999 V2000
    5.2435   -0.3232   -0.8045 Cl  0  0  0  0  0  0  0  0  0  0  0  0
    5.1034    2.0343    1.4085 Cl  0  0  0  0  0  0  0  0  0  0  0  0
   -7.1103   -0.4731    1.3471 Cl  0  0  0  0  0  0  0  0  0  0  0  0
    1.3397    3.3519   -1.1545 S   0  0  0  0  0  0  0  0  0  0  0  0
    0.2575   -1.9992   -0.7005 N   0  0  1  0  0  0  0  0  0  0  0  0
    0.3277    1.0001   -1.3023 N   0  0  0  0  0  0  0  0  0  0  0  0
   -1.1781    2.3653   -0.3752 N   0  0  0  0  0  0  0  0  0  0  0  0
   -0.8048   -1.2559   -1.3770 C   0  0  0  0  0  0  0  0  0  0  0  0
   -0.7549    0.2135   -1.0529 C   0  0  0  0  0  0  0  0  0  0  0  0
   -0.0827   -2.2109    0.7060 C   0  0  0  0  0  0  0  0  0  0  0  0
    0.4907   -3.2792   -1.3682 C   0  0  0  0  0  0  0  0  0  0  0  0
    1.1661   -2.5254    1.5303 C   0  0  0  0  0  0  0  0  0  0  0  0
   -1.6731    1.0784   -0.4798 C   0  0  0  0  0  0  0  0  0  0  0  0
    0.0188    2.2576   -0.8815 C   0  0  0  0  0  0  0  0  0  0  0  0
    2.1591   -1.3915    1.4853 C   0  0  0  0  0  0  0  0  0  0  0  0
   -2.9831    0.7051   -0.0395 C   0  0  0  0  0  0  0  0  0  0  0  0
    0.9053   -3.0759   -2.8157 C   0  0  0  0  0  0  0  0  0  0  0  0
    1.5820    0.8454   -1.8429 C   0  0  0  0  0  0  0  0  0  0  0  0
    2.2629    2.0041   -1.8434 C   0  0  0  0  0  0  0  0  0  0  0  0
    3.1375   -1.3582    0.4917 C   0  0  0  0  0  0  0  0  0  0  0  0
    2.0989   -0.3752    2.4390 C   0  0  0  0  0  0  0  0  0  0  0  0
   -3.8999    0.1769   -0.9485 C   0  0  0  0  0  0  0  0  0  0  0  0
   -3.3426    0.8687    1.2983 C   0  0  0  0  0  0  0  0  0  0  0  0
    4.0554   -0.3088    0.4514 C   0  0  0  0  0  0  0  0  0  0  0  0
    3.0168    0.6743    2.3989 C   0  0  0  0  0  0  0  0  0  0  0  0
   -5.1762   -0.1874   -0.5198 C   0  0  0  0  0  0  0  0  0  0  0  0
   -4.6191    0.5045    1.7270 C   0  0  0  0  0  0  0  0  0  0  0  0
    3.9951    0.7074    1.4050 C   0  0  0  0  0  0  0  0  0  0  0  0
   -5.5358   -0.0235    0.8180 C   0  0  0  0  0  0  0  0  0  0  0  0
   -1.7853   -1.6859   -1.1401 H   0  0  0  0  0  0  0  0  0  0  0  0
   -0.7281   -1.2839   -2.4678 H   0  0  0  0  0  0  0  0  0  0  0  0
   -0.5399   -1.3126    1.1404 H   0  0  0  0  0  0  0  0  0  0  0  0
   -0.8220   -3.0139    0.8246 H   0  0  0  0  0  0  0  0  0  0  0  0
    1.3042   -3.8244   -0.8787 H   0  0  0  0  0  0  0  0  0  0  0  0
   -0.3962   -3.9247   -1.3319 H   0  0  0  0  0  0  0  0  0  0  0  0
    1.6472   -3.4590    1.2174 H   0  0  0  0  0  0  0  0  0  0  0  0
    0.8675   -2.6988    2.5727 H   0  0  0  0  0  0  0  0  0  0  0  0
    0.0662   -2.8390   -3.4757 H   0  0  0  0  0  0  0  0  0  0  0  0
    1.3335   -4.0096   -3.1994 H   0  0  0  0  0  0  0  0  0  0  0  0
    1.6778   -2.3083   -2.9198 H   0  0  0  0  0  0  0  0  0  0  0  0
    1.9310   -0.1033   -2.2161 H   0  0  0  0  0  0  0  0  0  0  0  0
    3.2670    2.1381   -2.2200 H   0  0  0  0  0  0  0  0  0  0  0  0
    3.1898   -2.1554   -0.2460 H   0  0  0  0  0  0  0  0  0  0  0  0
    1.3395   -0.3882    3.2162 H   0  0  0  0  0  0  0  0  0  0  0  0
   -3.6427    0.0480   -1.9974 H   0  0  0  0  0  0  0  0  0  0  0  0
   -2.6392    1.2768    2.0204 H   0  0  0  0  0  0  0  0  0  0  0  0
    2.9543    1.4586    3.1490 H   0  0  0  0  0  0  0  0  0  0  0  0
   -5.8808   -0.5963   -1.2395 H   0  0  0  0  0  0  0  0  0  0  0  0
   -4.8852    0.6371    2.7725 H   0  0  0  0  0  0  0  0  0  0  0  0
  1 24  1  0  0  0  0
  2 28  1  0  0  0  0
  3 29  1  0  0  0  0
  4 14  1  0  0  0  0
  4 19  1  0  0  0  0
  5  8  1  0  0  0  0
  5 10  1  0  0  0  0
  5 11  1  0  0  0  0
  6  9  1  0  0  0  0
  6 14  1  0  0  0  0
  6 18  1  0  0  0  0
  7 13  1  0  0  0  0
  7 14  2  0  0  0  0
  8  9  1  0  0  0  0
  8 30  1  0  0  0  0
  8 31  1  0  0  0  0
  9 13  2  0  0  0  0
 10 12  1  0  0  0  0
 10 32  1  0  0  0  0
 10 33  1  0  0  0  0
 11 17  1  0  0  0  0
 11 34  1  0  0  0  0
 11 35  1  0  0  0  0
 12 15  1  0  0  0  0
 12 36  1  0  0  0  0
 12 37  1  0  0  0  0
 13 16  1  0  0  0  0
 15 20  2  0  0  0  0
 15 21  1  0  0  0  0
 16 22  2  0  0  0  0
 16 23  1  0  0  0  0
 17 38  1  0  0  0  0
 17 39  1  0  0  0  0
 17 40  1  0  0  0  0
 18 19  2  0  0  0  0
 18 41  1  0  0  0  0
 19 42  1  0  0  0  0
 20 24  1  0  0  0  0
 20 43  1  0  0  0  0
 21 25  2  0  0  0  0
 21 44  1  0  0  0  0
 22 26  1  0  0  0  0
 22 45  1  0  0  0  0
 23 27  2  0  0  0  0
 23 46  1  0  0  0  0
 24 28  2  0  0  0  0
 25 28  1  0  0  0  0
 25 47  1  0  0  0  0
 26 29  2  0  0  0  0
 26 48  1  0  0  0  0
 27 29  1  0  0  0  0
 27 49  1  0  0  0  0
M  END
> <PUBCHEM_COMPOUND_CID>
142505466

> <PUBCHEM_CONFORMER_RMSD>
0.8

> <PUBCHEM_CONFORMER_DIVERSEORDER>
3
210
275
184
14
62
186
286
327
308
133
175
71
325
134
168
229
68
235
92
136
169
185
265
200
330
97
85
326
111
193
159
311
154
16
323
318
189
99
82
160
212
205
203
81
254
220
300
226
261
130
47
303
177
221
231
199
310
278
178
123
108
331
322
307
216
335
1
59
171
80
13
234
48
105
94
115
197
298
174
191
173
66
129
140
213
146
269
75
53
45
217
95
334
313
329
245
285
211
328
180
88
253
246
304
143
166
258
141
149
208
262
153
219
165
163
158
242
151
139
301
67
247
74
181
176
103
207
43
142
25
202
46
51
277
289
249
338
238
241
44
65
117
93
40
27
162
42
116
228
137
89
4
336
118
155
79
257
172
83
148
293
15
296
283
204
107
215
113
11
135
72
236
132
201
279
64
90
121
98
282
218
271
77
222
31
128
161
18
39
70
295
126
124
26
256
281
127
2
21
333
188
5
100
297
96
119
152
324
17
28
190
114
156
164
50
34
276
58
9
104
56
32
29
109
63
291
194
20
223
309
250
120
150
302
41
144
86
225
145
76
6
244
273
12
122
38
183
30
287
198
227
157
290
272
264
73
233
224
36
320
260
33
206
284
196
131
263
102
35
321
55
240
87
57
54
49
52
306
337
22
19
182
299
239
267
112
312
195
106
138
69
24
288
315
214
7
78
292
268
317
332
251
8
270
147
10
294
243
60
37
280
319
23
192
252
209
91
259
167
248
101
187
232
274
125
316
314
237
179
305
84
110
266
230
170
61
255

> <PUBCHEM_MMFF94_PARTIAL_CHARGES>
37
1 -0.18
10 0.27
11 0.27
12 0.14
13 0.17
14 0.24
15 -0.14
16 0.05
18 -0.18
19 -0.05
2 -0.18
20 -0.15
21 -0.15
22 -0.15
23 -0.15
24 0.18
25 -0.15
26 -0.15
27 -0.15
28 0.18
29 0.18
3 -0.18
4 -0.16
41 0.15
42 0.15
43 0.15
44 0.15
45 0.15
46 0.15
47 0.15
48 0.15
49 0.15
5 -0.81
6 0.33
7 -0.57
8 0.45
9 -0.33

> <PUBCHEM_EFFECTIVE_ROTOR_COUNT>
7

> <PUBCHEM_PHARMACOPHORE_FEATURES>
6
1 5 cation
3 6 7 14 cation
5 4 6 14 18 19 rings
5 6 7 9 13 14 rings
6 15 20 21 24 25 28 rings
6 16 22 23 26 27 29 rings

> <PUBCHEM_HEAVY_ATOM_COUNT>
29

> <PUBCHEM_ATOM_DEF_STEREO_COUNT>
0

> <PUBCHEM_ATOM_UDEF_STEREO_COUNT>
0

> <PUBCHEM_BOND_DEF_STEREO_COUNT>
0

> <PUBCHEM_BOND_UDEF_STEREO_COUNT>
0

> <PUBCHEM_ISOTOPIC_ATOM_COUNT>
0

> <PUBCHEM_COMPONENT_COUNT>
1

> <PUBCHEM_CACTVS_TAUTO_COUNT>
-1

> <PUBCHEM_CONFORMER_ID>
087E75FA00000003

> <PUBCHEM_MMFF94_ENERGY>
68.7498

> <PUBCHEM_FEATURE_SELFOVERLAP>
30.701

> <PUBCHEM_SHAPE_FINGERPRINT>
10165383 225 18060138739402318598
10305334 12 17479430779439333784
10816530 23 17628635551416324564
1100329 8 18114749346738041010
11112662 9 17917700348943894332
11115154 58 16620066793405316831
11578080 2 17842846516870639561
12596602 18 18131068264395526529
12633257 1 17603303790869151419
12778500 126 16844461427286793163
128993 33 18053635046477343232
13083527 12 17967250893096675365
131258 38 16878503574335274170
13692114 37 18129666438953390479
14747281 78 15769223880656871256
14787075 74 17312829272719724962
14840074 17 18410004455651212373
14955137 171 18334019393162213996
15927050 60 17755315800468340700
17349148 13 18411416220344542679
17492 54 16660947512431189740
19319366 153 17676490588308332158
20626108 58 14851893517210972739
21304303 282 14426636753329154958
21421861 104 18043836220368144617
23558518 356 17184474759237236501
23559900 14 16298671680826570965
25222932 49 17967531294363633203
2637199 183 17561075891426919898
3797600 57 16805324354056632826
392239 28 18337372933802725640
465052 167 17968103031518746637
469060 322 17533466127861256946
484985 159 14137164586436564986
57527306 92 17895202112605822532
6287921 2 18058452006491660887
6442390 28 18060410331000398582
9896288 288 17900809463199820568
9999458 23 17489584541513490962

> <PUBCHEM_SHAPE_MULTIPOLES>
591.32
11.25
3.29
2.51
14.58
0.69
0.07
-1.87
6.45
-2.41
-1.78
-1.41
0.64
0.06

> <PUBCHEM_SHAPE_SELFOVERLAP>
1243.557

> <PUBCHEM_SHAPE_VOLUME>
339.3

> <PUBCHEM_COORDINATE_TYPE>
2
5
10

