142505504
  -OEChem-06302411133D

 39 42  0     0  0  0  0  0  0999 V2000
    0.1764   -4.5936   -1.9004 Cl  0  0  0  0  0  0  0  0  0  0  0  0
   -4.6357   -1.3344    1.3549 Cl  0  0  0  0  0  0  0  0  0  0  0  0
   -5.5097    1.6217    2.3397 Cl  0  0  0  0  0  0  0  0  0  0  0  0
    5.7482    0.9820    1.3109 S   0  0  0  0  0  0  0  0  0  0  0  0
   -0.6295    1.5818   -2.1219 O   0  0  0  0  0  0  0  0  0  0  0  0
    3.5181    1.2635    0.0764 N   0  0  0  0  0  0  0  0  0  0  0  0
    3.5252   -0.7290    1.0866 N   0  0  0  0  0  0  0  0  0  0  0  0
    0.1472    0.7399   -1.3140 N   0  0  0  0  0  0  0  0  0  0  0  0
    2.3145    0.7075   -0.2321 C   0  0  0  0  0  0  0  0  0  0  0  0
    2.3409   -0.5236    0.4029 C   0  0  0  0  0  0  0  0  0  0  0  0
    4.1878    0.3701    0.8557 C   0  0  0  0  0  0  0  0  0  0  0  0
    1.2798   -1.4906    0.3711 C   0  0  0  0  0  0  0  0  0  0  0  0
    4.1839    2.4361   -0.1900 C   0  0  0  0  0  0  0  0  0  0  0  0
    1.3002    1.3117   -1.0362 C   0  0  0  0  0  0  0  0  0  0  0  0
    5.3947    2.4567    0.3926 C   0  0  0  0  0  0  0  0  0  0  0  0
    1.2483   -2.4594   -0.6319 C   0  0  0  0  0  0  0  0  0  0  0  0
    0.2802   -1.4609    1.3437 C   0  0  0  0  0  0  0  0  0  0  0  0
    0.2173   -3.3986   -0.6624 C   0  0  0  0  0  0  0  0  0  0  0  0
   -0.7509   -2.3998    1.3131 C   0  0  0  0  0  0  0  0  0  0  0  0
   -2.7689    1.0806   -1.2111 C   0  0  0  0  0  0  0  0  0  0  0  0
   -1.8577    0.9234   -2.3929 C   0  0  0  0  0  0  0  0  0  0  0  0
   -0.7823   -3.3689    0.3102 C   0  0  0  0  0  0  0  0  0  0  0  0
   -3.2387   -0.0468   -0.5370 C   0  0  0  0  0  0  0  0  0  0  0  0
   -3.1462    2.3547   -0.7866 C   0  0  0  0  0  0  0  0  0  0  0  0
   -4.0860    0.1002    0.5613 C   0  0  0  0  0  0  0  0  0  0  0  0
   -3.9937    2.5015    0.3116 C   0  0  0  0  0  0  0  0  0  0  0  0
   -4.4635    1.3742    0.9856 C   0  0  0  0  0  0  0  0  0  0  0  0
    3.7445    3.2124   -0.7975 H   0  0  0  0  0  0  0  0  0  0  0  0
    1.5038    2.3180   -1.4447 H   0  0  0  0  0  0  0  0  0  0  0  0
    6.1039    3.2699    0.3291 H   0  0  0  0  0  0  0  0  0  0  0  0
    2.0272   -2.4839   -1.3917 H   0  0  0  0  0  0  0  0  0  0  0  0
    0.2897   -0.7119    2.1321 H   0  0  0  0  0  0  0  0  0  0  0  0
   -1.5278   -2.3772    2.0714 H   0  0  0  0  0  0  0  0  0  0  0  0
   -1.6826   -0.1279   -2.6542 H   0  0  0  0  0  0  0  0  0  0  0  0
   -2.3146    1.3975   -3.2687 H   0  0  0  0  0  0  0  0  0  0  0  0
   -1.5924   -4.0935    0.2988 H   0  0  0  0  0  0  0  0  0  0  0  0
   -2.9437   -1.0386   -0.8719 H   0  0  0  0  0  0  0  0  0  0  0  0
   -2.7885    3.2404   -1.3050 H   0  0  0  0  0  0  0  0  0  0  0  0
   -4.2779    3.5019    0.6283 H   0  0  0  0  0  0  0  0  0  0  0  0
  1 18  1  0  0  0  0
  2 25  1  0  0  0  0
  3 27  1  0  0  0  0
  4 11  1  0  0  0  0
  4 15  1  0  0  0  0
  5  8  1  0  0  0  0
  5 21  1  0  0  0  0
  6  9  1  0  0  0  0
  6 11  1  0  0  0  0
  6 13  1  0  0  0  0
  7 10  1  0  0  0  0
  7 11  2  0  0  0  0
  8 14  2  0  0  0  0
  9 10  2  0  0  0  0
  9 14  1  0  0  0  0
 10 12  1  0  0  0  0
 12 16  2  0  0  0  0
 12 17  1  0  0  0  0
 13 15  2  0  0  0  0
 13 28  1  0  0  0  0
 14 29  1  0  0  0  0
 15 30  1  0  0  0  0
 16 18  1  0  0  0  0
 16 31  1  0  0  0  0
 17 19  2  0  0  0  0
 17 32  1  0  0  0  0
 18 22  2  0  0  0  0
 19 22  1  0  0  0  0
 19 33  1  0  0  0  0
 20 21  1  0  0  0  0
 20 23  2  0  0  0  0
 20 24  1  0  0  0  0
 21 34  1  0  0  0  0
 21 35  1  0  0  0  0
 22 36  1  0  0  0  0
 23 25  1  0  0  0  0
 23 37  1  0  0  0  0
 24 26  2  0  0  0  0
 24 38  1  0  0  0  0
 25 27  2  0  0  0  0
 26 27  1  0  0  0  0
 26 39  1  0  0  0  0
M  END
> <PUBCHEM_COMPOUND_CID>
142505504

> <PUBCHEM_CONFORMER_RMSD>
1

> <PUBCHEM_CONFORMER_DIVERSEORDER>
1
5
33
150
19
166
70
134
32
29
36
168
126
163
71
60
59
34
16
64
67
4
88
172
31
30
109
46
98
117
62
66
143
47
37
102
22
89
24
155
178
93
85
10
174
119
167
104
175
152
13
92
140
78
177
136
15
79
112
148
159
74
2
101
35
73
9
90
171
106
129
7
146
23
157
11
154
160
137
48
80
97
65
20
43
14
91
41
28
162
138
12
53
169
3
45
55
83
76
18
99
21
27
94
8
149
69
111
51
130
147
84
164
100
49
40
131
128
145
6
77
122
110
108
63
38
120
144
135
61
151
103
82
176
105
124
132
58
26
142
39
75
153
121
87
156
114
141
56
139
125
42
170
133
118
81
173
116
52
123
17
68
96
54
113
86
107
57
25
72
165
44
50
95
127
115
161
158

> <PUBCHEM_MMFF94_PARTIAL_CHARGES>
37
1 -0.18
10 0.17
11 0.24
12 0.05
13 -0.18
14 0.47
15 -0.05
16 -0.15
17 -0.15
18 0.18
19 -0.15
2 -0.18
20 -0.14
21 0.42
22 -0.15
23 -0.15
24 -0.15
25 0.18
26 -0.15
27 0.18
28 0.15
29 0.06
3 -0.18
30 0.15
31 0.15
32 0.15
33 0.15
36 0.15
37 0.15
38 0.15
39 0.15
4 -0.16
5 -0.22
6 0.33
7 -0.57
8 -0.51
9 -0.24

> <PUBCHEM_EFFECTIVE_ROTOR_COUNT>
5

> <PUBCHEM_PHARMACOPHORE_FEATURES>
6
1 8 acceptor
3 6 7 11 cation
5 4 6 11 13 15 rings
5 6 7 9 10 11 rings
6 12 16 17 18 19 22 rings
6 20 23 24 25 26 27 rings

> <PUBCHEM_HEAVY_ATOM_COUNT>
27

> <PUBCHEM_ATOM_DEF_STEREO_COUNT>
0

> <PUBCHEM_ATOM_UDEF_STEREO_COUNT>
0

> <PUBCHEM_BOND_DEF_STEREO_COUNT>
1

> <PUBCHEM_BOND_UDEF_STEREO_COUNT>
0

> <PUBCHEM_ISOTOPIC_ATOM_COUNT>
0

> <PUBCHEM_COMPONENT_COUNT>
1

> <PUBCHEM_CACTVS_TAUTO_COUNT>
-1

> <PUBCHEM_CONFORMER_ID>
087E762000000001

> <PUBCHEM_MMFF94_ENERGY>
64.1655

> <PUBCHEM_FEATURE_SELFOVERLAP>
30.7

> <PUBCHEM_SHAPE_FINGERPRINT>
11115154 58 17261571389396081687
11370993 70 18409446964522142033
11488393 25 17977384932798600586
11578080 2 18198082433341472502
1200032 147 16485872228395213969
12035758 1 18265322912283049642
12363563 72 15791746182710137037
12422481 6 18113900446393763232
12788726 201 17761787559968709447
13642711 20 17417815071177764659
14178342 30 18114188480313458349
14341114 328 18272653445924699753
15840311 113 17979649931948983969
1979834 28 18117018632007166681
20261772 1 17968655029395311828
21202864 24 18264766734822608086
21756936 100 18201150061792612228
25019877 29 17772768292844685119
392239 28 18408325514228305145
469060 322 16734092613025218687
59755656 520 18413387657631028092
6287921 2 18264508199662033159
6371380 46 17107342386798586229
6438718 38 18192430990276492326
7064713 232 18335147505119736473
9862522 239 18336260253567920682

> <PUBCHEM_SHAPE_MULTIPOLES>
544.29
11.2
4.48
1.96
2.37
5.29
0.41
-11.35
-6.63
0.04
1.36
-1.61
-0.08
0.24

> <PUBCHEM_SHAPE_SELFOVERLAP>
1157.18

> <PUBCHEM_SHAPE_VOLUME>
308.9

> <PUBCHEM_COORDINATE_TYPE>
2
5
10

