142505469
  -OEChem-06302411133D

 39 42  0     0  0  0  0  0  0999 V2000
   -5.3575    2.2924    0.0021 S   0  0  0  0  0  0  0  0  0  0  0  0
    1.7218    0.6480   -0.0009 O   0  0  0  0  0  0  0  0  0  0  0  0
   -2.8433    1.7868   -0.0008 N   0  0  0  0  0  0  0  0  0  0  0  0
   -3.9581   -0.1492    0.0009 N   0  0  0  0  0  0  0  0  0  0  0  0
    0.4316    0.1000   -0.0011 N   0  0  0  0  0  0  0  0  0  0  0  0
   -1.8798    0.8252   -0.0018 C   0  0  0  0  0  0  0  0  0  0  0  0
   -2.5920   -0.3632   -0.0008 C   0  0  0  0  0  0  0  0  0  0  0  0
   -4.0477    1.1518    0.0009 C   0  0  0  0  0  0  0  0  0  0  0  0
   -2.0072   -1.6748   -0.0007 C   0  0  0  0  0  0  0  0  0  0  0  0
   -2.8955    3.1603   -0.0009 C   0  0  0  0  0  0  0  0  0  0  0  0
   -0.4708    1.0590   -0.0017 C   0  0  0  0  0  0  0  0  0  0  0  0
   -4.1642    3.6036    0.0004 C   0  0  0  0  0  0  0  0  0  0  0  0
   -1.7235   -2.3128   -1.2081 C   0  0  0  0  0  0  0  0  0  0  0  0
   -1.7225   -2.3105    1.2078 C   0  0  0  0  0  0  0  0  0  0  0  0
   -1.1552   -3.5865   -1.2072 C   0  0  0  0  0  0  0  0  0  0  0  0
   -1.1540   -3.5844    1.2088 C   0  0  0  0  0  0  0  0  0  0  0  0
   -0.8704   -4.2224    0.0013 C   0  0  0  0  0  0  0  0  0  0  0  0
    4.0461    0.1424   -0.0001 C   0  0  0  0  0  0  0  0  0  0  0  0
    2.6554   -0.4213   -0.0001 C   0  0  0  0  0  0  0  0  0  0  0  0
    4.6930    0.4038   -1.2078 C   0  0  0  0  0  0  0  0  0  0  0  0
    4.6917    0.4049    1.2081 C   0  0  0  0  0  0  0  0  0  0  0  0
    5.9859    0.9278   -1.2075 C   0  0  0  0  0  0  0  0  0  0  0  0
    5.9844    0.9288    1.2086 C   0  0  0  0  0  0  0  0  0  0  0  0
    6.6315    1.1903    0.0008 C   0  0  0  0  0  0  0  0  0  0  0  0
   -1.9995    3.7620   -0.0021 H   0  0  0  0  0  0  0  0  0  0  0  0
   -0.1268    2.1090   -0.0021 H   0  0  0  0  0  0  0  0  0  0  0  0
   -4.4620    4.6426    0.0006 H   0  0  0  0  0  0  0  0  0  0  0  0
   -1.9393   -1.8307   -2.1587 H   0  0  0  0  0  0  0  0  0  0  0  0
   -1.9373   -1.8267    2.1577 H   0  0  0  0  0  0  0  0  0  0  0  0
   -0.9339   -4.0833   -2.1474 H   0  0  0  0  0  0  0  0  0  0  0  0
   -0.9319   -4.0794    2.1497 H   0  0  0  0  0  0  0  0  0  0  0  0
    2.5012   -1.0519   -0.8850 H   0  0  0  0  0  0  0  0  0  0  0  0
    2.5007   -1.0511    0.8851 H   0  0  0  0  0  0  0  0  0  0  0  0
   -0.4275   -5.2141    0.0019 H   0  0  0  0  0  0  0  0  0  0  0  0
    4.1996    0.2054   -2.1556 H   0  0  0  0  0  0  0  0  0  0  0  0
    4.1973    0.2073    2.1555 H   0  0  0  0  0  0  0  0  0  0  0  0
    6.4896    1.1318   -2.1478 H   0  0  0  0  0  0  0  0  0  0  0  0
    6.4871    1.1337    2.1493 H   0  0  0  0  0  0  0  0  0  0  0  0
    7.6380    1.5984    0.0013 H   0  0  0  0  0  0  0  0  0  0  0  0
  1  8  1  0  0  0  0
  1 12  1  0  0  0  0
  2  5  1  0  0  0  0
  2 19  1  0  0  0  0
  3  6  1  0  0  0  0
  3  8  1  0  0  0  0
  3 10  1  0  0  0  0
  4  7  1  0  0  0  0
  4  8  2  0  0  0  0
  5 11  2  0  0  0  0
  6  7  2  0  0  0  0
  6 11  1  0  0  0  0
  7  9  1  0  0  0  0
  9 13  2  0  0  0  0
  9 14  1  0  0  0  0
 10 12  2  0  0  0  0
 10 25  1  0  0  0  0
 11 26  1  0  0  0  0
 12 27  1  0  0  0  0
 13 15  1  0  0  0  0
 13 28  1  0  0  0  0
 14 16  2  0  0  0  0
 14 29  1  0  0  0  0
 15 17  2  0  0  0  0
 15 30  1  0  0  0  0
 16 17  1  0  0  0  0
 16 31  1  0  0  0  0
 17 34  1  0  0  0  0
 18 19  1  0  0  0  0
 18 20  2  0  0  0  0
 18 21  1  0  0  0  0
 19 32  1  0  0  0  0
 19 33  1  0  0  0  0
 20 22  1  0  0  0  0
 20 35  1  0  0  0  0
 21 23  2  0  0  0  0
 21 36  1  0  0  0  0
 22 24  2  0  0  0  0
 22 37  1  0  0  0  0
 23 24  1  0  0  0  0
 23 38  1  0  0  0  0
 24 39  1  0  0  0  0
M  END
> <PUBCHEM_COMPOUND_CID>
142505469

> <PUBCHEM_CONFORMER_RMSD>
0.8

> <PUBCHEM_CONFORMER_DIVERSEORDER>
1
34
16
15
6
42
22
46
40
19
9
2
11
39
10
33
7
13
4
43
31
3
50
14
17
8
35
45
30
49
21
41
24
32
12
26
51
44
36
5
29
23
47
20
28
27
25
18
48
38
37

> <PUBCHEM_MMFF94_PARTIAL_CHARGES>
37
1 -0.16
10 -0.18
11 0.47
12 -0.05
13 -0.15
14 -0.15
15 -0.15
16 -0.15
17 -0.15
18 -0.14
19 0.42
2 -0.22
20 -0.15
21 -0.15
22 -0.15
23 -0.15
24 -0.15
25 0.15
26 0.06
27 0.15
28 0.15
29 0.15
3 0.33
30 0.15
31 0.15
34 0.15
35 0.15
36 0.15
37 0.15
38 0.15
39 0.15
4 -0.57
5 -0.51
6 -0.24
7 0.17
8 0.24
9 0.05

> <PUBCHEM_EFFECTIVE_ROTOR_COUNT>
5

> <PUBCHEM_PHARMACOPHORE_FEATURES>
6
1 5 acceptor
3 3 4 8 cation
5 1 3 8 10 12 rings
5 3 4 6 7 8 rings
6 18 20 21 22 23 24 rings
6 9 13 14 15 16 17 rings

> <PUBCHEM_HEAVY_ATOM_COUNT>
24

> <PUBCHEM_ATOM_DEF_STEREO_COUNT>
0

> <PUBCHEM_ATOM_UDEF_STEREO_COUNT>
0

> <PUBCHEM_BOND_DEF_STEREO_COUNT>
1

> <PUBCHEM_BOND_UDEF_STEREO_COUNT>
0

> <PUBCHEM_ISOTOPIC_ATOM_COUNT>
0

> <PUBCHEM_COMPONENT_COUNT>
1

> <PUBCHEM_CACTVS_TAUTO_COUNT>
-1

> <PUBCHEM_CONFORMER_ID>
087E75FD00000001

> <PUBCHEM_MMFF94_ENERGY>
60.738

> <PUBCHEM_FEATURE_SELFOVERLAP>
30.7

> <PUBCHEM_SHAPE_FINGERPRINT>
10411042 1 17834394897321283887
107951 10 18412831265412563095
12107183 9 18189886523339458674
12166972 35 12535332511287986361
12390115 104 18271254815573403769
12616971 3 17095235948170264084
12788726 201 18264759021114761307
14251757 5 18412270562022267440
14251764 75 18197223550818854993
14659021 117 17981590878307287578
14790565 3 18266459806393546608
14844126 61 18265048222610881210
15042514 8 18193843858671214851
15131766 46 15865780823155455332
15230672 131 18337677400483663694
15463212 79 18261664922236557770
15927050 60 18340486677592237359
16087824 20 18411979205402267479
167882 2 18123188996366964879
17844677 252 18269276936516475376
20511986 3 17822278107521156936
20554085 129 18127669570780222153
20681677 155 18409448098609591024
21033648 29 18202271498959637056
23366157 5 17612599925865016387
23559900 14 18272658927009208190
23598288 3 18044674210893558543
23728640 28 18337390543026447931
268830 7 16950563337637530500
283562 15 18412262823065751771
3298306 158 18270962315109468263
3383291 50 18338515365081304035
3411729 13 18047473323254433097
3610482 184 18041293166021001486
4015057 19 16845283986290586176
4073 2 18408887374150842498
497634 4 16154276164160981322
508706 21 18129369570433322370
5219985 13 18337107839551908141
5385378 56 18124041122511224905
58260988 114 16298959769635881475
7288768 16 17967535661786229962
9981440 41 18335707087971752923

> <PUBCHEM_SHAPE_MULTIPOLES>
476.95
13.7
4.74
1.11
23.76
4.09
0
-13.34
0
-7.46
0
0.98
0.56
0

> <PUBCHEM_SHAPE_SELFOVERLAP>
1038.73

> <PUBCHEM_SHAPE_VOLUME>
261.6

> <PUBCHEM_COORDINATE_TYPE>
2
5
10

