142505500
  -OEChem-06302411133D

 42 45  0     0  0  0  0  0  0999 V2000
    4.4367   -0.1243    1.2075 Cl  0  0  0  0  0  0  0  0  0  0  0  0
    4.5619   -3.0958    2.4844 Cl  0  0  0  0  0  0  0  0  0  0  0  0
   -6.1957    0.2310    1.2928 S   0  0  0  0  0  0  0  0  0  0  0  0
    2.6003    4.1545   -1.3186 F   0  0  0  0  0  0  0  0  0  0  0  0
    2.7906    4.2239    0.8464 F   0  0  0  0  0  0  0  0  0  0  0  0
    3.5754    2.5282   -0.2546 F   0  0  0  0  0  0  0  0  0  0  0  0
   -0.2223   -2.2724   -2.0046 O   0  0  0  0  0  0  0  0  0  0  0  0
   -4.1253   -0.7169    0.1129 N   0  0  0  0  0  0  0  0  0  0  0  0
   -3.6202    1.3032    0.9222 N   0  0  0  0  0  0  0  0  0  0  0  0
   -0.7523   -1.1887   -1.2907 N   0  0  0  0  0  0  0  0  0  0  0  0
   -2.5353    0.7432    0.2731 C   0  0  0  0  0  0  0  0  0  0  0  0
   -2.8261   -0.5114   -0.2374 C   0  0  0  0  0  0  0  0  0  0  0  0
   -1.2675    1.4071    0.1564 C   0  0  0  0  0  0  0  0  0  0  0  0
   -4.5392    0.3869    0.7943 C   0  0  0  0  0  0  0  0  0  0  0  0
   -5.0663   -1.7066   -0.0431 C   0  0  0  0  0  0  0  0  0  0  0  0
   -0.2910    1.2239    1.1355 C   0  0  0  0  0  0  0  0  0  0  0  0
   -1.0121    2.2348   -0.9371 C   0  0  0  0  0  0  0  0  0  0  0  0
   -2.0070   -1.4250   -0.9688 C   0  0  0  0  0  0  0  0  0  0  0  0
    1.1962    2.6954   -0.0725 C   0  0  0  0  0  0  0  0  0  0  0  0
    0.9409    1.8679    1.0209 C   0  0  0  0  0  0  0  0  0  0  0  0
    0.2197    2.8789   -1.0516 C   0  0  0  0  0  0  0  0  0  0  0  0
   -6.2349   -1.3677    0.5274 C   0  0  0  0  0  0  0  0  0  0  0  0
    2.5131    3.3846   -0.1949 C   0  0  0  0  0  0  0  0  0  0  0  0
    1.9883   -2.2342   -1.1274 C   0  0  0  0  0  0  0  0  0  0  0  0
    1.1267   -1.9708   -2.3274 C   0  0  0  0  0  0  0  0  0  0  0  0
    2.7351   -1.2002   -0.5627 C   0  0  0  0  0  0  0  0  0  0  0  0
    2.0424   -3.5147   -0.5769 C   0  0  0  0  0  0  0  0  0  0  0  0
    3.5356   -1.4465    0.5526 C   0  0  0  0  0  0  0  0  0  0  0  0
    2.8428   -3.7612    0.5385 C   0  0  0  0  0  0  0  0  0  0  0  0
    3.5894   -2.7271    1.1032 C   0  0  0  0  0  0  0  0  0  0  0  0
   -4.8436   -2.6234   -0.5671 H   0  0  0  0  0  0  0  0  0  0  0  0
   -0.4740    0.5817    1.9938 H   0  0  0  0  0  0  0  0  0  0  0  0
   -1.7628    2.3877   -1.7089 H   0  0  0  0  0  0  0  0  0  0  0  0
   -2.4611   -2.3836   -1.2782 H   0  0  0  0  0  0  0  0  0  0  0  0
    1.6944    1.7204    1.7897 H   0  0  0  0  0  0  0  0  0  0  0  0
    0.3988    3.5188   -1.9111 H   0  0  0  0  0  0  0  0  0  0  0  0
   -7.1251   -1.9805    0.5376 H   0  0  0  0  0  0  0  0  0  0  0  0
    1.2151   -0.9396   -2.6923 H   0  0  0  0  0  0  0  0  0  0  0  0
    1.4376   -2.6268   -3.1481 H   0  0  0  0  0  0  0  0  0  0  0  0
    2.6918   -0.2036   -0.9959 H   0  0  0  0  0  0  0  0  0  0  0  0
    1.4670   -4.3289   -1.0094 H   0  0  0  0  0  0  0  0  0  0  0  0
    2.8732   -4.7652    0.9543 H   0  0  0  0  0  0  0  0  0  0  0  0
  1 28  1  0  0  0  0
  2 30  1  0  0  0  0
  3 14  1  0  0  0  0
  3 22  1  0  0  0  0
  4 23  1  0  0  0  0
  5 23  1  0  0  0  0
  6 23  1  0  0  0  0
  7 10  1  0  0  0  0
  7 25  1  0  0  0  0
  8 12  1  0  0  0  0
  8 14  1  0  0  0  0
  8 15  1  0  0  0  0
  9 11  1  0  0  0  0
  9 14  2  0  0  0  0
 10 18  2  0  0  0  0
 11 12  2  0  0  0  0
 11 13  1  0  0  0  0
 12 18  1  0  0  0  0
 13 16  2  0  0  0  0
 13 17  1  0  0  0  0
 15 22  2  0  0  0  0
 15 31  1  0  0  0  0
 16 20  1  0  0  0  0
 16 32  1  0  0  0  0
 17 21  2  0  0  0  0
 17 33  1  0  0  0  0
 18 34  1  0  0  0  0
 19 20  2  0  0  0  0
 19 21  1  0  0  0  0
 19 23  1  0  0  0  0
 20 35  1  0  0  0  0
 21 36  1  0  0  0  0
 22 37  1  0  0  0  0
 24 25  1  0  0  0  0
 24 26  2  0  0  0  0
 24 27  1  0  0  0  0
 25 38  1  0  0  0  0
 25 39  1  0  0  0  0
 26 28  1  0  0  0  0
 26 40  1  0  0  0  0
 27 29  2  0  0  0  0
 27 41  1  0  0  0  0
 28 30  2  0  0  0  0
 29 30  1  0  0  0  0
 29 42  1  0  0  0  0
M  END
> <PUBCHEM_COMPOUND_CID>
142505500

> <PUBCHEM_CONFORMER_RMSD>
0.8

> <PUBCHEM_CONFORMER_DIVERSEORDER>
1
77
93
164
39
54
35
140
163
86
122
72
69
13
29
134
41
176
107
73
153
168
160
40
167
53
17
7
33
91
64
76
52
57
121
24
79
9
142
19
119
70
14
47
23
112
156
62
48
123
38
88
51
175
42
5
8
99
65
146
18
2
105
177
152
66
106
131
75
49
56
92
179
132
67
45
162
27
143
6
101
68
98
130
147
148
22
60
125
144
3
58
15
135
110
50
126
16
94
108
154
139
138
20
129
25
174
141
90
169
78
32
34
80
4
115
12
182
116
26
31
183
46
81
136
11
30
151
85
171
170
149
165
97
10
137
44
120
161
155
173
89
145
103
83
95
43
71
117
128
74
59
150
166
184
21
118
157
87
180
82
100
96
114
36
178
111
109
37
63
102
113
181
124
61
172
104
28
55
159
127
158
84
133

> <PUBCHEM_MMFF94_PARTIAL_CHARGES>
40
1 -0.18
10 -0.51
11 0.17
12 -0.24
13 0.05
14 0.24
15 -0.18
16 -0.15
17 -0.15
18 0.47
19 -0.14
2 -0.18
20 -0.15
21 -0.15
22 -0.05
23 1.16
24 -0.14
25 0.42
26 -0.15
27 -0.15
28 0.18
29 -0.15
3 -0.16
30 0.18
31 0.15
32 0.15
33 0.15
34 0.06
35 0.15
36 0.15
37 0.15
4 -0.34
40 0.15
41 0.15
42 0.15
5 -0.34
6 -0.34
7 -0.22
8 0.33
9 -0.57

> <PUBCHEM_EFFECTIVE_ROTOR_COUNT>
6

> <PUBCHEM_PHARMACOPHORE_FEATURES>
6
1 10 acceptor
3 8 9 14 cation
5 3 8 14 15 22 rings
5 8 9 11 12 14 rings
6 13 16 17 19 20 21 rings
6 24 26 27 28 29 30 rings

> <PUBCHEM_HEAVY_ATOM_COUNT>
30

> <PUBCHEM_ATOM_DEF_STEREO_COUNT>
0

> <PUBCHEM_ATOM_UDEF_STEREO_COUNT>
0

> <PUBCHEM_BOND_DEF_STEREO_COUNT>
1

> <PUBCHEM_BOND_UDEF_STEREO_COUNT>
0

> <PUBCHEM_ISOTOPIC_ATOM_COUNT>
0

> <PUBCHEM_COMPONENT_COUNT>
1

> <PUBCHEM_CACTVS_TAUTO_COUNT>
-1

> <PUBCHEM_CONFORMER_ID>
087E761C00000001

> <PUBCHEM_MMFF94_ENERGY>
66.3521

> <PUBCHEM_FEATURE_SELFOVERLAP>
30.7

> <PUBCHEM_SHAPE_FINGERPRINT>
10675989 125 16473151227070909175
107951 10 17761791949604406916
1100329 8 18269270347878082446
11578080 2 17822283557739373325
11963148 33 17762898063341805823
12035758 1 17978798900794472721
12107183 9 18195819470808350729
12156800 1 13898579483946143642
12422481 6 18129653093761390787
12788726 201 17757576065414756734
13140716 1 18197493137304406206
14004853 49 18050548923323403568
14840074 17 18341324570213793192
15250474 111 18200307861877105279
15297060 5 17203333364102704478
15351339 4 16827805277593499806
15463212 79 17692241254847203885
15475509 35 17750542670585301707
15840311 113 16195085320538300465
15927050 60 18053951937280019518
16120349 306 18054780951893724192
1813 80 18262527991925702489
19301679 30 18335993056011899449
1979834 28 17703512086703355695
21133410 52 18268129016323550654
21304303 282 16600943593084355132
21421861 104 18270698514345199737
23366157 5 18335717073786546645
23559900 14 17558857042992226421
25147074 1 17988359386526250439
3187 122 18051408461910146480
3411729 13 18269284606916407973
460360 51 18265347118428670009
469060 322 18122917429558124978
474144 1 18341051903814125440
484985 159 15945670951541618330
508706 21 16973927620093168398
5309563 4 18337953390259207288
613672 6 18050553054606649310
6823239 73 17773899522441133166

> <PUBCHEM_SHAPE_MULTIPOLES>
582.34
11.1
5.39
1.74
13.24
4.16
0.15
-7.7
-6.42
-7.15
0.62
-1.27
-0.98
-1.2

> <PUBCHEM_SHAPE_SELFOVERLAP>
1253.006

> <PUBCHEM_SHAPE_VOLUME>
329.1

> <PUBCHEM_COORDINATE_TYPE>
2
5
10

