142505438
  -OEChem-06302411133D

 40 43  0     0  0  0  0  0  0999 V2000
   -4.5905   -0.7034    1.1612 Cl  0  0  0  0  0  0  0  0  0  0  0  0
   -5.0754    2.2066    2.4923 Cl  0  0  0  0  0  0  0  0  0  0  0  0
    6.0075    0.2152    1.3025 S   0  0  0  0  0  0  0  0  0  0  0  0
   -0.2107    2.0482   -1.9829 O   0  0  0  0  0  0  0  0  0  0  0  0
    3.8427    0.9308    0.1281 N   0  0  0  0  0  0  0  0  0  0  0  0
    3.5804   -1.1503    0.8967 N   0  0  0  0  0  0  0  0  0  0  0  0
    0.4426    1.0223   -1.2861 N   0  0  0  0  0  0  0  0  0  0  0  0
   -3.1532   -4.5537   -0.3950 N   0  0  0  0  0  0  0  0  0  0  0  0
    2.5789    0.5782   -0.2336 C   0  0  0  0  0  0  0  0  0  0  0  0
    2.4385   -0.7118    0.2518 C   0  0  0  0  0  0  0  0  0  0  0  0
    4.3835   -0.1283    0.7913 C   0  0  0  0  0  0  0  0  0  0  0  0
    1.2597   -1.5205    0.1153 C   0  0  0  0  0  0  0  0  0  0  0  0
    4.6590    2.0290   -0.0039 C   0  0  0  0  0  0  0  0  0  0  0  0
    1.6588    1.4009   -0.9526 C   0  0  0  0  0  0  0  0  0  0  0  0
    1.1092   -2.3517   -0.9947 C   0  0  0  0  0  0  0  0  0  0  0  0
    0.2655   -1.4749    1.0926 C   0  0  0  0  0  0  0  0  0  0  0  0
    5.8576    1.8215    0.5671 C   0  0  0  0  0  0  0  0  0  0  0  0
   -0.0356   -3.1375   -1.1274 C   0  0  0  0  0  0  0  0  0  0  0  0
   -0.8792   -2.2606    0.9599 C   0  0  0  0  0  0  0  0  0  0  0  0
   -1.0299   -3.0920   -0.1500 C   0  0  0  0  0  0  0  0  0  0  0  0
   -2.4041    1.7288   -1.1197 C   0  0  0  0  0  0  0  0  0  0  0  0
   -1.5128    1.5934   -2.3192 C   0  0  0  0  0  0  0  0  0  0  0  0
   -3.0236    0.6021   -0.5786 C   0  0  0  0  0  0  0  0  0  0  0  0
   -2.6131    2.9828   -0.5457 C   0  0  0  0  0  0  0  0  0  0  0  0
   -3.8520    0.7295    0.5363 C   0  0  0  0  0  0  0  0  0  0  0  0
   -3.4414    3.1103    0.5692 C   0  0  0  0  0  0  0  0  0  0  0  0
   -4.0608    1.9836    1.1102 C   0  0  0  0  0  0  0  0  0  0  0  0
   -2.2015   -3.8986   -0.2852 C   0  0  0  0  0  0  0  0  0  0  0  0
    4.3299    2.9224   -0.5120 H   0  0  0  0  0  0  0  0  0  0  0  0
    1.9959    2.4127   -1.2415 H   0  0  0  0  0  0  0  0  0  0  0  0
    1.8751   -2.3985   -1.7653 H   0  0  0  0  0  0  0  0  0  0  0  0
    0.3675   -0.8320    1.9637 H   0  0  0  0  0  0  0  0  0  0  0  0
    6.6680    2.5362    0.5939 H   0  0  0  0  0  0  0  0  0  0  0  0
   -0.1386   -3.7804   -1.9982 H   0  0  0  0  0  0  0  0  0  0  0  0
   -1.6441   -2.2156    1.7313 H   0  0  0  0  0  0  0  0  0  0  0  0
   -1.4756    0.5663   -2.7037 H   0  0  0  0  0  0  0  0  0  0  0  0
   -1.8970    2.2231   -3.1295 H   0  0  0  0  0  0  0  0  0  0  0  0
   -2.8597   -0.3737   -1.0301 H   0  0  0  0  0  0  0  0  0  0  0  0
   -2.1379    3.8682   -0.9597 H   0  0  0  0  0  0  0  0  0  0  0  0
   -3.5934    4.0953    1.0035 H   0  0  0  0  0  0  0  0  0  0  0  0
  1 25  1  0  0  0  0
  2 27  1  0  0  0  0
  3 11  1  0  0  0  0
  3 17  1  0  0  0  0
  4  7  1  0  0  0  0
  4 22  1  0  0  0  0
  5  9  1  0  0  0  0
  5 11  1  0  0  0  0
  5 13  1  0  0  0  0
  6 10  1  0  0  0  0
  6 11  2  0  0  0  0
  7 14  2  0  0  0  0
  8 28  3  0  0  0  0
  9 10  2  0  0  0  0
  9 14  1  0  0  0  0
 10 12  1  0  0  0  0
 12 15  2  0  0  0  0
 12 16  1  0  0  0  0
 13 17  2  0  0  0  0
 13 29  1  0  0  0  0
 14 30  1  0  0  0  0
 15 18  1  0  0  0  0
 15 31  1  0  0  0  0
 16 19  2  0  0  0  0
 16 32  1  0  0  0  0
 17 33  1  0  0  0  0
 18 20  2  0  0  0  0
 18 34  1  0  0  0  0
 19 20  1  0  0  0  0
 19 35  1  0  0  0  0
 20 28  1  0  0  0  0
 21 22  1  0  0  0  0
 21 23  2  0  0  0  0
 21 24  1  0  0  0  0
 22 36  1  0  0  0  0
 22 37  1  0  0  0  0
 23 25  1  0  0  0  0
 23 38  1  0  0  0  0
 24 26  2  0  0  0  0
 24 39  1  0  0  0  0
 25 27  2  0  0  0  0
 26 27  1  0  0  0  0
 26 40  1  0  0  0  0
M  END
> <PUBCHEM_COMPOUND_CID>
142505438

> <PUBCHEM_CONFORMER_RMSD>
0.8

> <PUBCHEM_CONFORMER_DIVERSEORDER>
1
61
127
37
73
48
167
11
147
75
175
56
138
154
32
124
110
23
133
157
112
94
6
14
173
161
134
160
26
158
145
50
8
49
148
17
81
123
150
4
55
43
129
108
171
7
88
143
170
12
13
100
85
172
115
106
30
31
53
113
122
44
141
152
15
18
22
5
46
174
24
131
82
41
35
72
165
36
102
153
39
59
65
155
33
86
25
111
64
2
98
144
40
68
118
9
164
97
3
19
116
169
89
151
80
126
95
77
90
16
63
51
149
42
142
166
156
117
10
20
67
139
60
66
52
92
105
120
91
83
103
162
74
58
121
130
132
78
136
119
114
38
87
21
140
45
125
101
128
135
163
71
96
159
57
62
146
79
76
99
93
107
34
47
137
69
28
70
104
84
27
109
168
54
29

> <PUBCHEM_MMFF94_PARTIAL_CHARGES>
38
1 -0.18
10 0.17
11 0.24
12 0.05
13 -0.18
14 0.47
15 -0.15
16 -0.15
17 -0.05
18 -0.15
19 -0.15
2 -0.18
20 0.07
21 -0.14
22 0.42
23 -0.15
24 -0.15
25 0.18
26 -0.15
27 0.18
28 0.48
29 0.15
3 -0.16
30 0.06
31 0.15
32 0.15
33 0.15
34 0.15
35 0.15
38 0.15
39 0.15
4 -0.22
40 0.15
5 0.33
6 -0.57
7 -0.51
8 -0.56
9 -0.24

> <PUBCHEM_EFFECTIVE_ROTOR_COUNT>
5

> <PUBCHEM_PHARMACOPHORE_FEATURES>
7
1 7 acceptor
1 8 acceptor
3 5 6 11 cation
5 3 5 11 13 17 rings
5 5 6 9 10 11 rings
6 12 15 16 18 19 20 rings
6 21 23 24 25 26 27 rings

> <PUBCHEM_HEAVY_ATOM_COUNT>
28

> <PUBCHEM_ATOM_DEF_STEREO_COUNT>
0

> <PUBCHEM_ATOM_UDEF_STEREO_COUNT>
0

> <PUBCHEM_BOND_DEF_STEREO_COUNT>
1

> <PUBCHEM_BOND_UDEF_STEREO_COUNT>
0

> <PUBCHEM_ISOTOPIC_ATOM_COUNT>
0

> <PUBCHEM_COMPONENT_COUNT>
1

> <PUBCHEM_CACTVS_TAUTO_COUNT>
-1

> <PUBCHEM_CONFORMER_ID>
087E75DE00000001

> <PUBCHEM_MMFF94_ENERGY>
64.4255

> <PUBCHEM_FEATURE_SELFOVERLAP>
35.775

> <PUBCHEM_SHAPE_FINGERPRINT>
10064457 181 18412547578479929333
10675989 125 16093715785157995668
11115154 58 17622701529937467943
11370993 70 18339360747588241097
11578080 2 18129402491658340182
12035758 1 18122618354644386714
12107183 9 18337942378179748042
12422481 6 18187652362112062136
12788726 201 17905623446278906974
13583140 156 16443887381231130876
13642711 20 16845572040941020187
14150022 121 17980469381032061240
14363568 33 17618792353546076671
14395042 24 18192724552172480443
14713325 29 18340764956870368110
15274700 34 17822594741775646073
15338160 23 18196370540649978952
19319366 153 17843683258061425225
1979834 28 18046936817483446097
20261772 1 18187081780291782436
21202864 24 18409444816985577438
21236236 1 18263915713328936238
21344244 78 17545593913056931786
21756936 100 18130779075736991204
23536364 44 10519989227661072057
244849 19 17416990420619662510
25019877 29 17774452697550804919
392239 28 18410295804478798521
469060 322 16878768530408633070
6287921 2 18122364397306259391
6438718 38 18269551796668648142
6700243 42 17265571352583667358
7064713 232 18410865343307021409
7471813 234 17619625121861036791

> <PUBCHEM_SHAPE_MULTIPOLES>
558.02
11.3
4.88
1.73
9.51
4.8
0.13
-8.45
-6.89
-5.12
0.76
-1.38
-0.96
-0.76

> <PUBCHEM_SHAPE_SELFOVERLAP>
1198.034

> <PUBCHEM_SHAPE_VOLUME>
311.9

> <PUBCHEM_COORDINATE_TYPE>
2
5
10

