142505454
  -OEChem-06302411133D

 42 45  0     0  0  0  0  0  0999 V2000
   -3.0149    3.9574   -1.0126 Cl  0  0  0  0  0  0  0  0  0  0  0  0
   -2.5863   -0.5425    3.1176 Cl  0  0  0  0  0  0  0  0  0  0  0  0
   -5.1627    0.4637    1.4368 Cl  0  0  0  0  0  0  0  0  0  0  0  0
    5.4764    0.2515    1.5451 S   0  0  0  0  0  0  0  0  0  0  0  0
    0.6109   -1.7902   -0.8497 O   0  0  0  0  0  0  0  0  0  0  0  0
    3.5942   -0.5065   -0.0235 N   0  0  0  0  0  0  0  0  0  0  0  0
    3.0188    1.4524    0.8834 N   0  0  0  0  0  0  0  0  0  0  0  0
    2.3718   -0.2202   -0.5494 C   0  0  0  0  0  0  0  0  0  0  0  0
    2.0358    0.9951    0.0252 C   0  0  0  0  0  0  0  0  0  0  0  0
    1.6738   -1.0975   -1.5057 C   0  0  0  0  0  0  0  0  0  0  0  0
    3.9233    0.5156    0.8138 C   0  0  0  0  0  0  0  0  0  0  0  0
    0.8162    1.7108   -0.2251 C   0  0  0  0  0  0  0  0  0  0  0  0
   -0.0795   -2.6434   -1.7486 C   0  0  0  0  0  0  0  0  0  0  0  0
   -1.2044   -3.3642   -1.0136 C   0  0  0  0  0  0  0  0  0  0  0  0
    4.5230   -1.5148   -0.1242 C   0  0  0  0  0  0  0  0  0  0  0  0
   -2.1859   -2.4053   -0.3849 C   0  0  0  0  0  0  0  0  0  0  0  0
    5.5956   -1.2736    0.6488 C   0  0  0  0  0  0  0  0  0  0  0  0
    0.5040    2.1249   -1.5201 C   0  0  0  0  0  0  0  0  0  0  0  0
   -0.0566    1.9913    0.8262 C   0  0  0  0  0  0  0  0  0  0  0  0
   -1.9838   -1.9533    0.9191 C   0  0  0  0  0  0  0  0  0  0  0  0
   -3.2964   -1.9714   -1.1091 C   0  0  0  0  0  0  0  0  0  0  0  0
   -0.6805    2.8197   -1.7637 C   0  0  0  0  0  0  0  0  0  0  0  0
   -1.2412    2.6862    0.5826 C   0  0  0  0  0  0  0  0  0  0  0  0
   -1.5532    3.1004   -0.7123 C   0  0  0  0  0  0  0  0  0  0  0  0
   -2.8918   -1.0673    1.4988 C   0  0  0  0  0  0  0  0  0  0  0  0
   -4.2044   -1.0855   -0.5295 C   0  0  0  0  0  0  0  0  0  0  0  0
   -4.0021   -0.6334    0.7745 C   0  0  0  0  0  0  0  0  0  0  0  0
    1.2650   -0.5086   -2.3340 H   0  0  0  0  0  0  0  0  0  0  0  0
    2.3606   -1.8304   -1.9444 H   0  0  0  0  0  0  0  0  0  0  0  0
   -0.4902   -2.0496   -2.5743 H   0  0  0  0  0  0  0  0  0  0  0  0
    0.6143   -3.3843   -2.1626 H   0  0  0  0  0  0  0  0  0  0  0  0
   -0.7801   -3.9987   -0.2248 H   0  0  0  0  0  0  0  0  0  0  0  0
   -1.7289   -4.0383   -1.7015 H   0  0  0  0  0  0  0  0  0  0  0  0
    4.3643   -2.3740   -0.7576 H   0  0  0  0  0  0  0  0  0  0  0  0
    6.4573   -1.9197    0.7394 H   0  0  0  0  0  0  0  0  0  0  0  0
    1.1758    1.9294   -2.3524 H   0  0  0  0  0  0  0  0  0  0  0  0
    0.1697    1.6728    1.8411 H   0  0  0  0  0  0  0  0  0  0  0  0
   -1.1165   -2.2936    1.4807 H   0  0  0  0  0  0  0  0  0  0  0  0
   -3.4632   -2.3152   -2.1265 H   0  0  0  0  0  0  0  0  0  0  0  0
   -0.9095    3.1387   -2.7772 H   0  0  0  0  0  0  0  0  0  0  0  0
   -1.9130    2.8956    1.4112 H   0  0  0  0  0  0  0  0  0  0  0  0
   -5.0637   -0.7569   -1.1087 H   0  0  0  0  0  0  0  0  0  0  0  0
  1 24  1  0  0  0  0
  2 25  1  0  0  0  0
  3 27  1  0  0  0  0
  4 11  1  0  0  0  0
  4 17  1  0  0  0  0
  5 10  1  0  0  0  0
  5 13  1  0  0  0  0
  6  8  1  0  0  0  0
  6 11  1  0  0  0  0
  6 15  1  0  0  0  0
  7  9  1  0  0  0  0
  7 11  2  0  0  0  0
  8  9  2  0  0  0  0
  8 10  1  0  0  0  0
  9 12  1  0  0  0  0
 10 28  1  0  0  0  0
 10 29  1  0  0  0  0
 12 18  2  0  0  0  0
 12 19  1  0  0  0  0
 13 14  1  0  0  0  0
 13 30  1  0  0  0  0
 13 31  1  0  0  0  0
 14 16  1  0  0  0  0
 14 32  1  0  0  0  0
 14 33  1  0  0  0  0
 15 17  2  0  0  0  0
 15 34  1  0  0  0  0
 16 20  2  0  0  0  0
 16 21  1  0  0  0  0
 17 35  1  0  0  0  0
 18 22  1  0  0  0  0
 18 36  1  0  0  0  0
 19 23  2  0  0  0  0
 19 37  1  0  0  0  0
 20 25  1  0  0  0  0
 20 38  1  0  0  0  0
 21 26  2  0  0  0  0
 21 39  1  0  0  0  0
 22 24  2  0  0  0  0
 22 40  1  0  0  0  0
 23 24  1  0  0  0  0
 23 41  1  0  0  0  0
 25 27  2  0  0  0  0
 26 27  1  0  0  0  0
 26 42  1  0  0  0  0
M  END
> <PUBCHEM_COMPOUND_CID>
142505454

> <PUBCHEM_CONFORMER_RMSD>
0.8

> <PUBCHEM_CONFORMER_DIVERSEORDER>
1
51
203
297
138
292
302
25
256
206
252
293
181
69
184
276
20
260
245
213
136
265
94
274
121
273
162
179
238
272
224
262
241
49
214
117
79
93
304
9
220
197
277
268
50
110
191
11
225
284
209
240
26
212
103
305
66
31
281
291
64
234
10
258
54
201
282
300
44
211
158
267
52
269
221
207
63
171
210
62
75
175
36
13
111
243
278
134
19
295
76
43
244
35
87
185
287
227
172
17
116
178
253
135
123
131
177
86
24
114
60
182
154
196
21
96
18
248
195
216
215
119
12
188
84
67
83
2
286
236
231
53
263
194
235
132
22
141
33
78
100
139
150
140
95
143
146
77
32
130
125
151
137
47
246
232
120
88
298
275
250
108
8
45
271
127
82
6
183
102
159
205
48
113
204
153
107
296
39
65
266
147
133
101
3
264
129
115
118
15
229
299
71
301
42
144
55
168
200
104
38
165
163
92
14
233
190
218
91
142
160
109
223
254
72
34
30
16
106
70
29
161
157
174
189
167
74
242
122
186
81
105
280
285
270
90
89
28
85
46
219
97
5
41
261
148
98
237
279
251
80
58
288
68
155
56
249
57
149
27
217
7
247
4
198
126
166
259
164
173
239
59
40
294
176
230
226
257
187
152
180
199
61
156
73
202
255
192
208
228
283
289
124
170
303
128
23
222
145
290
37
193
169
112
99

> <PUBCHEM_MMFF94_PARTIAL_CHARGES>
36
1 -0.18
10 0.46
11 0.24
12 0.05
13 0.28
14 0.14
15 -0.18
16 -0.14
17 -0.05
18 -0.15
19 -0.15
2 -0.18
20 -0.15
21 -0.15
22 -0.15
23 -0.15
24 0.18
25 0.18
26 -0.15
27 0.18
3 -0.18
34 0.15
35 0.15
36 0.15
37 0.15
38 0.15
39 0.15
4 -0.16
40 0.15
41 0.15
42 0.15
5 -0.56
6 0.33
7 -0.57
8 -0.33
9 0.17

> <PUBCHEM_EFFECTIVE_ROTOR_COUNT>
6

> <PUBCHEM_PHARMACOPHORE_FEATURES>
6
1 5 acceptor
3 6 7 11 cation
5 4 6 11 15 17 rings
5 6 7 8 9 11 rings
6 12 18 19 22 23 24 rings
6 16 20 21 25 26 27 rings

> <PUBCHEM_HEAVY_ATOM_COUNT>
27

> <PUBCHEM_ATOM_DEF_STEREO_COUNT>
0

> <PUBCHEM_ATOM_UDEF_STEREO_COUNT>
0

> <PUBCHEM_BOND_DEF_STEREO_COUNT>
0

> <PUBCHEM_BOND_UDEF_STEREO_COUNT>
0

> <PUBCHEM_ISOTOPIC_ATOM_COUNT>
0

> <PUBCHEM_COMPONENT_COUNT>
1

> <PUBCHEM_CACTVS_TAUTO_COUNT>
-1

> <PUBCHEM_CONFORMER_ID>
087E75EE00000001

> <PUBCHEM_MMFF94_ENERGY>
64.3131

> <PUBCHEM_FEATURE_SELFOVERLAP>
30.7

> <PUBCHEM_SHAPE_FINGERPRINT>
11370993 70 17703800210136213227
12156800 1 17549768488308773419
12166972 35 18055343897795083183
12422481 6 18266478524335322129
12597179 24 17975689494331670413
12633257 1 17918004883642235224
12655364 131 16766192533403612826
12788726 201 18260550043437745168
13004483 165 18334851757566125176
13402501 40 18340206285178614101
13965767 371 17985571999009629027
14790565 3 17329986310359596536
14840074 17 18338813298102926816
15238133 3 17895207588335722423
192875 21 17913482721530610927
20600515 1 18270407203486952583
20739085 24 17687727755847639364
20775438 99 12617015410931808505
2132832 1 17339821376859741430
21756936 100 16056595526144306216
21857420 4 14427459269836721875
22182313 1 18128263285605184758
22749437 52 17844541095969070359
238 59 16603521922556341909
238918 7 18269838618774023751
3027735 51 18188203191646805467
3052486 1 18042412343697468276
350125 39 18341607183826718976
35225 105 17827605141998048780
4409770 3 18337654339663995733
5080951 261 17825075196414339080
513202 73 18189898622014580002
5171179 24 17769661897222581142
5951187 136 14686987504909525985
6328613 192 18058741341996578900
7064713 232 17917441929304273091
7097593 13 17906168808489346766

> <PUBCHEM_SHAPE_MULTIPOLES>
549.27
9.87
4.32
2.04
8.67
2.26
0.85
-2.82
4.96
-3.74
-2.39
-1.21
-0.29
0.69

> <PUBCHEM_SHAPE_SELFOVERLAP>
1161.724

> <PUBCHEM_SHAPE_VOLUME>
313.7

> <PUBCHEM_COORDINATE_TYPE>
2
5
10

