142505366
  -OEChem-06302411133D

 42 45  0     0  0  0  0  0  0999 V2000
    4.6233    1.2832    1.0917 Cl  0  0  0  0  0  0  0  0  0  0  0  0
    5.3503   -1.5400    2.4979 Cl  0  0  0  0  0  0  0  0  0  0  0  0
   -5.8635   -0.4923    1.3284 S   0  0  0  0  0  0  0  0  0  0  0  0
    0.4691   -1.9019   -1.9475 O   0  0  0  0  0  0  0  0  0  0  0  0
   -3.6527   -1.0611    0.1596 N   0  0  0  0  0  0  0  0  0  0  0  0
   -3.5578    1.0548    0.8698 N   0  0  0  0  0  0  0  0  0  0  0  0
   -0.2627   -0.9139   -1.2745 N   0  0  0  0  0  0  0  0  0  0  0  0
   -2.3869    0.6934    0.2293 C   0  0  0  0  0  0  0  0  0  0  0  0
   -2.4235   -0.6166   -0.2200 C   0  0  0  0  0  0  0  0  0  0  0  0
   -1.2788    1.5913    0.0632 C   0  0  0  0  0  0  0  0  0  0  0  0
   -4.2752   -0.0317    0.7974 C   0  0  0  0  0  0  0  0  0  0  0  0
   -4.3771   -2.2253    0.0628 C   0  0  0  0  0  0  0  0  0  0  0  0
   -0.2791    1.6533    1.0339 C   0  0  0  0  0  0  0  0  0  0  0  0
   -1.2017    2.4011   -1.0701 C   0  0  0  0  0  0  0  0  0  0  0  0
   -1.4424   -1.3811   -0.9226 C   0  0  0  0  0  0  0  0  0  0  0  0
    0.8749    3.3343   -0.2618 C   0  0  0  0  0  0  0  0  0  0  0  0
   -5.5862   -2.1006    0.6359 C   0  0  0  0  0  0  0  0  0  0  0  0
    0.7978    2.5247    0.8714 C   0  0  0  0  0  0  0  0  0  0  0  0
   -0.1249    3.2726   -1.2326 C   0  0  0  0  0  0  0  0  0  0  0  0
    2.0259    4.2665   -0.4356 C   0  0  0  0  0  0  0  0  0  0  0  0
    2.6329   -1.3811   -1.1078 C   0  0  0  0  0  0  0  0  0  0  0  0
    1.7282   -1.3520   -2.3046 C   0  0  0  0  0  0  0  0  0  0  0  0
    3.1607   -0.1933   -0.6017 C   0  0  0  0  0  0  0  0  0  0  0  0
    2.9462   -2.5976   -0.5015 C   0  0  0  0  0  0  0  0  0  0  0  0
    4.0015   -0.2219    0.5108 C   0  0  0  0  0  0  0  0  0  0  0  0
    3.7870   -2.6264    0.6110 C   0  0  0  0  0  0  0  0  0  0  0  0
    4.3147   -1.4385    1.1171 C   0  0  0  0  0  0  0  0  0  0  0  0
   -3.9784   -3.1026   -0.4232 H   0  0  0  0  0  0  0  0  0  0  0  0
   -0.3238    1.0281    1.9226 H   0  0  0  0  0  0  0  0  0  0  0  0
   -1.9726    2.3642   -1.8363 H   0  0  0  0  0  0  0  0  0  0  0  0
   -1.6970   -2.4245   -1.1817 H   0  0  0  0  0  0  0  0  0  0  0  0
   -6.3353   -2.8780    0.6874 H   0  0  0  0  0  0  0  0  0  0  0  0
    1.5698    2.5633    1.6350 H   0  0  0  0  0  0  0  0  0  0  0  0
   -0.0745    3.8970   -2.1206 H   0  0  0  0  0  0  0  0  0  0  0  0
    1.7167    5.1814   -0.9524 H   0  0  0  0  0  0  0  0  0  0  0  0
    2.4414    4.5694    0.5315 H   0  0  0  0  0  0  0  0  0  0  0  0
    2.8158    3.7823   -1.0184 H   0  0  0  0  0  0  0  0  0  0  0  0
    1.6055   -0.3423   -2.7166 H   0  0  0  0  0  0  0  0  0  0  0  0
    2.1590   -1.9704   -3.1001 H   0  0  0  0  0  0  0  0  0  0  0  0
    2.9155    0.7531   -1.0782 H   0  0  0  0  0  0  0  0  0  0  0  0
    2.5431   -3.5299   -0.8882 H   0  0  0  0  0  0  0  0  0  0  0  0
    4.0209   -3.5834    1.0707 H   0  0  0  0  0  0  0  0  0  0  0  0
  1 25  1  0  0  0  0
  2 27  1  0  0  0  0
  3 11  1  0  0  0  0
  3 17  1  0  0  0  0
  4  7  1  0  0  0  0
  4 22  1  0  0  0  0
  5  9  1  0  0  0  0
  5 11  1  0  0  0  0
  5 12  1  0  0  0  0
  6  8  1  0  0  0  0
  6 11  2  0  0  0  0
  7 15  2  0  0  0  0
  8  9  2  0  0  0  0
  8 10  1  0  0  0  0
  9 15  1  0  0  0  0
 10 13  2  0  0  0  0
 10 14  1  0  0  0  0
 12 17  2  0  0  0  0
 12 28  1  0  0  0  0
 13 18  1  0  0  0  0
 13 29  1  0  0  0  0
 14 19  2  0  0  0  0
 14 30  1  0  0  0  0
 15 31  1  0  0  0  0
 16 18  2  0  0  0  0
 16 19  1  0  0  0  0
 16 20  1  0  0  0  0
 17 32  1  0  0  0  0
 18 33  1  0  0  0  0
 19 34  1  0  0  0  0
 20 35  1  0  0  0  0
 20 36  1  0  0  0  0
 20 37  1  0  0  0  0
 21 22  1  0  0  0  0
 21 23  2  0  0  0  0
 21 24  1  0  0  0  0
 22 38  1  0  0  0  0
 22 39  1  0  0  0  0
 23 25  1  0  0  0  0
 23 40  1  0  0  0  0
 24 26  2  0  0  0  0
 24 41  1  0  0  0  0
 25 27  2  0  0  0  0
 26 27  1  0  0  0  0
 26 42  1  0  0  0  0
M  END
> <PUBCHEM_COMPOUND_CID>
142505366

> <PUBCHEM_CONFORMER_RMSD>
0.8

> <PUBCHEM_CONFORMER_DIVERSEORDER>
1
75
121
45
16
162
42
174
117
41
49
135
106
120
88
77
72
12
53
91
147
29
40
59
166
20
15
115
4
101
55
56
150
47
160
6
167
102
10
118
57
98
3
158
63
153
175
64
133
36
43
126
144
139
99
128
73
18
13
7
14
2
125
131
39
11
24
130
155
52
93
21
66
25
163
19
54
137
140
107
28
136
82
27
31
145
5
71
124
8
22
9
32
173
142
134
44
159
17
51
103
113
170
34
110
67
58
176
50
35
157
95
172
89
141
83
80
114
65
171
116
104
168
46
161
152
151
123
127
86
92
74
78
111
119
94
68
96
84
37
164
112
48
85
62
60
132
122
69
61
149
129
100
97
108
138
33
87
156
154
38
109
105
81
148
26
165
79
146
169
30
90
23
76
70
143

> <PUBCHEM_MMFF94_PARTIAL_CHARGES>
37
1 -0.18
10 0.05
11 0.24
12 -0.18
13 -0.15
14 -0.15
15 0.47
16 -0.14
17 -0.05
18 -0.15
19 -0.15
2 -0.18
20 0.14
21 -0.14
22 0.42
23 -0.15
24 -0.15
25 0.18
26 -0.15
27 0.18
28 0.15
29 0.15
3 -0.16
30 0.15
31 0.06
32 0.15
33 0.15
34 0.15
4 -0.22
40 0.15
41 0.15
42 0.15
5 0.33
6 -0.57
7 -0.51
8 0.17
9 -0.24

> <PUBCHEM_EFFECTIVE_ROTOR_COUNT>
5

> <PUBCHEM_PHARMACOPHORE_FEATURES>
6
1 7 acceptor
3 5 6 11 cation
5 3 5 11 12 17 rings
5 5 6 8 9 11 rings
6 10 13 14 16 18 19 rings
6 21 23 24 25 26 27 rings

> <PUBCHEM_HEAVY_ATOM_COUNT>
27

> <PUBCHEM_ATOM_DEF_STEREO_COUNT>
0

> <PUBCHEM_ATOM_UDEF_STEREO_COUNT>
0

> <PUBCHEM_BOND_DEF_STEREO_COUNT>
1

> <PUBCHEM_BOND_UDEF_STEREO_COUNT>
0

> <PUBCHEM_ISOTOPIC_ATOM_COUNT>
0

> <PUBCHEM_COMPONENT_COUNT>
1

> <PUBCHEM_CACTVS_TAUTO_COUNT>
-1

> <PUBCHEM_CONFORMER_ID>
087E759600000001

> <PUBCHEM_MMFF94_ENERGY>
65.7254

> <PUBCHEM_FEATURE_SELFOVERLAP>
30.7

> <PUBCHEM_SHAPE_FINGERPRINT>
11578080 2 17749660870511948605
11963148 33 17402330872806484555
12035758 1 18194127318149877649
12107183 9 18339091397958777073
12166972 35 17240203214291307634
12422481 6 18201434761777604827
12553582 1 18412824690138885988
12895836 83 11167643409192057098
12895837 130 12677738015282507114
13140716 1 17910671299946043772
13583140 156 18122610661956863966
14004853 49 17905592656123566080
14840074 17 18268708484420096236
15163728 17 11312058776858384939
15475509 35 17460904983895379403
15840311 113 16628577782967306657
15927050 60 17765163060771255870
16120349 306 17838890787387042728
17492 89 18190456057240426106
1813 80 18261119577581221537
19301679 30 18191877923744062777
1979834 28 17775295949421627263
21033648 29 17274546421324995123
21304303 282 17248336125755839765
21421861 104 18197519474297475777
23366157 5 18118138085062590133
23419403 2 18188196685209241165
23559900 14 17912945893167539471
3187 122 18267020566045236316
392239 28 18335978697008210362
469060 322 18265626394033329714
484985 159 16305672000915032722
50009960 94 17970891483207337003
6823239 73 17845118236478146436
90316 7 18194128421222580461

> <PUBCHEM_SHAPE_MULTIPOLES>
542.42
11.38
4.36
1.76
6.19
4.14
0.14
-9.12
-7.32
-2.41
0.75
-1.53
-0.73
-0.18

> <PUBCHEM_SHAPE_SELFOVERLAP>
1160.333

> <PUBCHEM_SHAPE_VOLUME>
305.9

> <PUBCHEM_COORDINATE_TYPE>
2
5
10

