142505361
  -OEChem-06302411133D

 39 42  0     0  0  0  0  0  0999 V2000
    4.6233    1.3064    1.0862 Cl  0  0  0  0  0  0  0  0  0  0  0  0
    5.3614   -1.5109    2.4982 Cl  0  0  0  0  0  0  0  0  0  0  0  0
   -5.8566   -0.5086    1.3307 S   0  0  0  0  0  0  0  0  0  0  0  0
    1.8963    4.1830   -0.4255 F   0  0  0  0  0  0  0  0  0  0  0  0
    0.4801   -1.9010   -1.9446 O   0  0  0  0  0  0  0  0  0  0  0  0
   -3.6441   -1.0714    0.1622 N   0  0  0  0  0  0  0  0  0  0  0  0
   -3.5571    1.0464    0.8679 N   0  0  0  0  0  0  0  0  0  0  0  0
   -0.2553   -0.9143   -1.2734 N   0  0  0  0  0  0  0  0  0  0  0  0
   -2.4167   -0.6230   -0.2188 C   0  0  0  0  0  0  0  0  0  0  0  0
   -2.3850    0.6881    0.2277 C   0  0  0  0  0  0  0  0  0  0  0  0
   -4.2704   -0.0431    0.7980 C   0  0  0  0  0  0  0  0  0  0  0  0
   -1.2803    1.5899    0.0593 C   0  0  0  0  0  0  0  0  0  0  0  0
   -4.3641   -2.2386    0.0681 C   0  0  0  0  0  0  0  0  0  0  0  0
   -1.4331   -1.3852   -0.9201 C   0  0  0  0  0  0  0  0  0  0  0  0
   -5.5735   -2.1172    0.6414 C   0  0  0  0  0  0  0  0  0  0  0  0
   -1.2063    2.3978   -1.0755 C   0  0  0  0  0  0  0  0  0  0  0  0
   -0.2813    1.6583    1.0303 C   0  0  0  0  0  0  0  0  0  0  0  0
   -0.1333    3.2737   -1.2393 C   0  0  0  0  0  0  0  0  0  0  0  0
    0.7917    2.5342    0.8666 C   0  0  0  0  0  0  0  0  0  0  0  0
    2.6421   -1.3701   -1.1069 C   0  0  0  0  0  0  0  0  0  0  0  0
    1.7369   -1.3469   -2.3035 C   0  0  0  0  0  0  0  0  0  0  0  0
    0.8657    3.3419   -0.2682 C   0  0  0  0  0  0  0  0  0  0  0  0
    3.1656   -0.1792   -0.6035 C   0  0  0  0  0  0  0  0  0  0  0  0
    2.9603   -2.5842   -0.4981 C   0  0  0  0  0  0  0  0  0  0  0  0
    4.0070   -0.2023    0.5088 C   0  0  0  0  0  0  0  0  0  0  0  0
    3.8017   -2.6073    0.6141 C   0  0  0  0  0  0  0  0  0  0  0  0
    4.3250   -1.4164    1.1176 C   0  0  0  0  0  0  0  0  0  0  0  0
   -3.9622   -3.1154   -0.4161 H   0  0  0  0  0  0  0  0  0  0  0  0
   -1.6838   -2.4302   -1.1770 H   0  0  0  0  0  0  0  0  0  0  0  0
   -6.3197   -2.8974    0.6949 H   0  0  0  0  0  0  0  0  0  0  0  0
   -1.9768    2.3564   -1.8418 H   0  0  0  0  0  0  0  0  0  0  0  0
   -0.3238    1.0352    1.9205 H   0  0  0  0  0  0  0  0  0  0  0  0
   -0.0750    3.9025   -2.1228 H   0  0  0  0  0  0  0  0  0  0  0  0
    1.5683    2.5888    1.6234 H   0  0  0  0  0  0  0  0  0  0  0  0
    1.6102   -0.3386   -2.7176 H   0  0  0  0  0  0  0  0  0  0  0  0
    2.1698   -1.9654   -3.0977 H   0  0  0  0  0  0  0  0  0  0  0  0
    2.9166    0.7653   -1.0819 H   0  0  0  0  0  0  0  0  0  0  0  0
    2.5606   -3.5188   -0.8826 H   0  0  0  0  0  0  0  0  0  0  0  0
    4.0394   -3.5624    1.0757 H   0  0  0  0  0  0  0  0  0  0  0  0
  1 25  1  0  0  0  0
  2 27  1  0  0  0  0
  3 11  1  0  0  0  0
  3 15  1  0  0  0  0
  4 22  1  0  0  0  0
  5  8  1  0  0  0  0
  5 21  1  0  0  0  0
  6  9  1  0  0  0  0
  6 11  1  0  0  0  0
  6 13  1  0  0  0  0
  7 10  1  0  0  0  0
  7 11  2  0  0  0  0
  8 14  2  0  0  0  0
  9 10  2  0  0  0  0
  9 14  1  0  0  0  0
 10 12  1  0  0  0  0
 12 16  2  0  0  0  0
 12 17  1  0  0  0  0
 13 15  2  0  0  0  0
 13 28  1  0  0  0  0
 14 29  1  0  0  0  0
 15 30  1  0  0  0  0
 16 18  1  0  0  0  0
 16 31  1  0  0  0  0
 17 19  2  0  0  0  0
 17 32  1  0  0  0  0
 18 22  2  0  0  0  0
 18 33  1  0  0  0  0
 19 22  1  0  0  0  0
 19 34  1  0  0  0  0
 20 21  1  0  0  0  0
 20 23  2  0  0  0  0
 20 24  1  0  0  0  0
 21 35  1  0  0  0  0
 21 36  1  0  0  0  0
 23 25  1  0  0  0  0
 23 37  1  0  0  0  0
 24 26  2  0  0  0  0
 24 38  1  0  0  0  0
 25 27  2  0  0  0  0
 26 27  1  0  0  0  0
 26 39  1  0  0  0  0
M  END
> <PUBCHEM_COMPOUND_CID>
142505361

> <PUBCHEM_CONFORMER_RMSD>
0.8

> <PUBCHEM_CONFORMER_DIVERSEORDER>
1
72
169
35
22
39
10
126
57
59
36
154
48
85
17
50
56
86
106
120
38
91
55
118
32
16
51
166
60
150
12
44
11
162
18
26
19
145
165
5
15
73
148
4
45
130
124
111
96
7
42
163
161
84
9
8
127
21
14
100
47
43
58
172
28
2
29
131
76
54
113
114
142
37
110
68
104
144
160
3
103
170
90
141
178
125
164
140
71
13
20
158
168
121
171
6
149
53
180
30
137
31
159
93
119
79
139
156
24
108
101
132
27
23
97
135
151
74
116
49
82
107
63
62
25
177
61
89
87
112
176
175
155
143
102
153
173
105
64
34
46
41
147
88
80
123
152
117
128
40
70
94
52
157
69
81
122
98
78
138
83
146
66
109
167
92
99
65
174
115
134
129
33
133
75
77
95
179
67
136

> <PUBCHEM_MMFF94_PARTIAL_CHARGES>
37
1 -0.18
10 0.17
11 0.24
12 0.05
13 -0.18
14 0.47
15 -0.05
16 -0.15
17 -0.15
18 -0.15
19 -0.15
2 -0.18
20 -0.14
21 0.42
22 0.19
23 -0.15
24 -0.15
25 0.18
26 -0.15
27 0.18
28 0.15
29 0.06
3 -0.16
30 0.15
31 0.15
32 0.15
33 0.15
34 0.15
37 0.15
38 0.15
39 0.15
4 -0.19
5 -0.22
6 0.33
7 -0.57
8 -0.51
9 -0.24

> <PUBCHEM_EFFECTIVE_ROTOR_COUNT>
5

> <PUBCHEM_PHARMACOPHORE_FEATURES>
6
1 8 acceptor
3 6 7 11 cation
5 3 6 11 13 15 rings
5 6 7 9 10 11 rings
6 12 16 17 18 19 22 rings
6 20 23 24 25 26 27 rings

> <PUBCHEM_HEAVY_ATOM_COUNT>
27

> <PUBCHEM_ATOM_DEF_STEREO_COUNT>
0

> <PUBCHEM_ATOM_UDEF_STEREO_COUNT>
0

> <PUBCHEM_BOND_DEF_STEREO_COUNT>
1

> <PUBCHEM_BOND_UDEF_STEREO_COUNT>
0

> <PUBCHEM_ISOTOPIC_ATOM_COUNT>
0

> <PUBCHEM_COMPONENT_COUNT>
1

> <PUBCHEM_CACTVS_TAUTO_COUNT>
-1

> <PUBCHEM_CONFORMER_ID>
087E759100000001

> <PUBCHEM_MMFF94_ENERGY>
63.5774

> <PUBCHEM_FEATURE_SELFOVERLAP>
30.7

> <PUBCHEM_SHAPE_FINGERPRINT>
11578080 2 17749660870527785877
11963148 33 17402049402130022451
12035758 1 18194127318160414161
12107183 9 18339091402280079153
12166972 35 17240203218586274874
12422481 6 18201716236764910451
12553582 1 18412824690133578756
12895836 83 11167643409192050602
12895837 130 12605962995717132282
13140716 1 17838895185137563268
13583140 156 18122611761468491774
14004853 49 17905312284927083200
14840074 17 18268708484404259004
15163728 17 11312058776858397923
15475509 35 17460904988200902707
15840311 113 16628578882484202697
16120349 306 17839171162852112632
17492 89 18190456061530125138
1813 80 18261119577591771025
19301679 30 18192159398725989729
1979834 28 17775295953737706567
21033648 29 17275109371310084411
21304303 282 17248336125766382773
21421861 104 18197802048822698497
23366157 5 18117856610101690749
23559900 14 17844557494460006431
3187 122 18339079263858084836
392239 28 18335978697002935610
469060 322 18265344923351547370
484985 159 16305672005199444002
50009960 94 17971172958199891395
6823239 73 17845118236478133436
90316 7 18265904544589308061

> <PUBCHEM_SHAPE_MULTIPOLES>
535.15
11.45
4.13
1.77
4.95
3.69
0.14
-8.98
-7.5
-1.56
0.73
-1.56
-0.65
0.03

> <PUBCHEM_SHAPE_SELFOVERLAP>
1149.27

> <PUBCHEM_SHAPE_VOLUME>
302.6

> <PUBCHEM_COORDINATE_TYPE>
2
5
10

