146929355
  -OEChem-06302411133D

 39 42  0     0  0  0  0  0  0999 V2000
    3.2612    3.8780    0.2100 Br  0  0  0  0  0  0  0  0  0  0  0  0
    5.4887   -0.0768   -0.3823 Cl  0  0  0  0  0  0  0  0  0  0  0  0
    4.9566   -2.0137    2.1550 Cl  0  0  0  0  0  0  0  0  0  0  0  0
   -5.0323   -0.9598    2.0447 S   0  0  0  0  0  0  0  0  0  0  0  0
   -0.4090   -0.8205   -1.5184 O   0  0  0  0  0  0  0  0  0  0  0  0
   -3.7293   -0.4100   -0.0948 N   0  0  0  0  0  0  0  0  0  0  0  0
   -2.6297    0.4511    1.6488 N   0  0  0  0  0  0  0  0  0  0  0  0
   -1.1975   -0.2560   -2.5307 N   0  0  0  0  0  0  0  0  0  0  0  0
   -2.6338    0.1933   -0.6321 C   0  0  0  0  0  0  0  0  0  0  0  0
   -1.9688    0.7188    0.4639 C   0  0  0  0  0  0  0  0  0  0  0  0
   -3.6723   -0.2247    1.2529 C   0  0  0  0  0  0  0  0  0  0  0  0
   -0.7407    1.4607    0.4039 C   0  0  0  0  0  0  0  0  0  0  0  0
   -4.8148   -1.1186   -0.5519 C   0  0  0  0  0  0  0  0  0  0  0  0
   -2.3065    0.2390   -2.0219 C   0  0  0  0  0  0  0  0  0  0  0  0
   -5.6184   -1.4922    0.4584 C   0  0  0  0  0  0  0  0  0  0  0  0
   -0.6785    2.6491   -0.3236 C   0  0  0  0  0  0  0  0  0  0  0  0
    0.3902    0.9926    1.0731 C   0  0  0  0  0  0  0  0  0  0  0  0
    0.5146    3.3695   -0.3819 C   0  0  0  0  0  0  0  0  0  0  0  0
    1.5832    1.7130    1.0149 C   0  0  0  0  0  0  0  0  0  0  0  0
    1.8246   -1.4958   -1.0593 C   0  0  0  0  0  0  0  0  0  0  0  0
    0.7703   -1.3382   -2.1153 C   0  0  0  0  0  0  0  0  0  0  0  0
    1.6454    2.9014    0.2873 C   0  0  0  0  0  0  0  0  0  0  0  0
    3.0332   -0.8083   -1.1706 C   0  0  0  0  0  0  0  0  0  0  0  0
    1.5950   -2.3301    0.0346 C   0  0  0  0  0  0  0  0  0  0  0  0
    4.0122   -0.9553   -0.1880 C   0  0  0  0  0  0  0  0  0  0  0  0
    2.5740   -2.4770    1.0173 C   0  0  0  0  0  0  0  0  0  0  0  0
    3.7826   -1.7896    0.9061 C   0  0  0  0  0  0  0  0  0  0  0  0
   -4.9546   -1.3211   -1.6029 H   0  0  0  0  0  0  0  0  0  0  0  0
   -3.0507    0.6502   -2.7232 H   0  0  0  0  0  0  0  0  0  0  0  0
   -6.5330   -2.0581    0.3515 H   0  0  0  0  0  0  0  0  0  0  0  0
   -1.5500    3.0351   -0.8471 H   0  0  0  0  0  0  0  0  0  0  0  0
    0.3560    0.0722    1.6508 H   0  0  0  0  0  0  0  0  0  0  0  0
    0.5460    4.2945   -0.9520 H   0  0  0  0  0  0  0  0  0  0  0  0
    2.4534    1.3382    1.5472 H   0  0  0  0  0  0  0  0  0  0  0  0
    1.1215   -0.6653   -2.9081 H   0  0  0  0  0  0  0  0  0  0  0  0
    0.5506   -2.3112   -2.5701 H   0  0  0  0  0  0  0  0  0  0  0  0
    3.2095   -0.1565   -2.0234 H   0  0  0  0  0  0  0  0  0  0  0  0
    0.6576   -2.8715    0.1317 H   0  0  0  0  0  0  0  0  0  0  0  0
    2.3779   -3.1311    1.8632 H   0  0  0  0  0  0  0  0  0  0  0  0
  1 22  1  0  0  0  0
  2 25  1  0  0  0  0
  3 27  1  0  0  0  0
  4 11  1  0  0  0  0
  4 15  1  0  0  0  0
  5  8  1  0  0  0  0
  5 21  1  0  0  0  0
  6  9  1  0  0  0  0
  6 11  1  0  0  0  0
  6 13  1  0  0  0  0
  7 10  1  0  0  0  0
  7 11  2  0  0  0  0
  8 14  2  0  0  0  0
  9 10  2  0  0  0  0
  9 14  1  0  0  0  0
 10 12  1  0  0  0  0
 12 16  2  0  0  0  0
 12 17  1  0  0  0  0
 13 15  2  0  0  0  0
 13 28  1  0  0  0  0
 14 29  1  0  0  0  0
 15 30  1  0  0  0  0
 16 18  1  0  0  0  0
 16 31  1  0  0  0  0
 17 19  2  0  0  0  0
 17 32  1  0  0  0  0
 18 22  2  0  0  0  0
 18 33  1  0  0  0  0
 19 22  1  0  0  0  0
 19 34  1  0  0  0  0
 20 21  1  0  0  0  0
 20 23  2  0  0  0  0
 20 24  1  0  0  0  0
 21 35  1  0  0  0  0
 21 36  1  0  0  0  0
 23 25  1  0  0  0  0
 23 37  1  0  0  0  0
 24 26  2  0  0  0  0
 24 38  1  0  0  0  0
 25 27  2  0  0  0  0
 26 27  1  0  0  0  0
 26 39  1  0  0  0  0
M  END
> <PUBCHEM_COMPOUND_CID>
146929355

> <PUBCHEM_CONFORMER_RMSD>
0.8

> <PUBCHEM_CONFORMER_DIVERSEORDER>
1
73
128
19
125
34
179
47
153
163
25
152
118
22
62
82
162
69
124
72
173
105
26
120
137
146
110
59
43
10
45
100
58
129
41
169
155
93
31
138
142
29
117
81
83
12
84
9
145
40
17
75
23
107
16
11
48
161
171
176
114
116
147
3
156
65
14
182
5
177
77
13
160
135
130
2
91
141
133
67
150
167
95
50
127
70
55
102
157
61
139
144
80
154
158
132
183
21
28
49
4
166
97
60
131
106
7
168
33
52
46
42
159
92
164
178
24
51
36
115
181
56
88
18
90
20
108
27
101
112
39
99
6
89
74
30
165
37
38
109
44
123
151
111
64
54
87
103
96
113
66
79
180
134
8
15
86
149
140
119
126
63
136
148
68
172
76
104
53
122
175
32
57
78
35
71
143
121
170
94
98
85
174

> <PUBCHEM_MMFF94_PARTIAL_CHARGES>
37
1 -0.11
10 0.17
11 0.24
12 0.05
13 -0.18
14 0.47
15 -0.05
16 -0.15
17 -0.15
18 -0.15
19 -0.15
2 -0.18
20 -0.14
21 0.42
22 0.11
23 -0.15
24 -0.15
25 0.18
26 -0.15
27 0.18
28 0.15
29 0.06
3 -0.18
30 0.15
31 0.15
32 0.15
33 0.15
34 0.15
37 0.15
38 0.15
39 0.15
4 -0.16
5 -0.22
6 0.33
7 -0.57
8 -0.51
9 -0.24

> <PUBCHEM_EFFECTIVE_ROTOR_COUNT>
5

> <PUBCHEM_PHARMACOPHORE_FEATURES>
7
1 1 hydrophobe
1 8 acceptor
3 6 7 11 cation
5 4 6 11 13 15 rings
5 6 7 9 10 11 rings
6 12 16 17 18 19 22 rings
6 20 23 24 25 26 27 rings

> <PUBCHEM_HEAVY_ATOM_COUNT>
27

> <PUBCHEM_ATOM_DEF_STEREO_COUNT>
0

> <PUBCHEM_ATOM_UDEF_STEREO_COUNT>
0

> <PUBCHEM_BOND_DEF_STEREO_COUNT>
1

> <PUBCHEM_BOND_UDEF_STEREO_COUNT>
0

> <PUBCHEM_ISOTOPIC_ATOM_COUNT>
0

> <PUBCHEM_COMPONENT_COUNT>
1

> <PUBCHEM_CACTVS_TAUTO_COUNT>
-1

> <PUBCHEM_CONFORMER_ID>
08C1F6CB00000001

> <PUBCHEM_MMFF94_ENERGY>
71.4601

> <PUBCHEM_FEATURE_SELFOVERLAP>
35.774

> <PUBCHEM_SHAPE_FINGERPRINT>
10032420 55 18187087213763275496
10369192 42 17535186966986744996
10382601 240 18270967975902939436
107951 10 17545342120673141724
10906281 52 17912650099123486061
11578080 2 18040714754006480077
11963148 33 17620184773823491111
12156800 1 11595561107145230956
12166972 35 17822015272886945598
12422481 6 17845938424575510529
12553582 1 18271800199194525662
12592029 89 18195813096633491653
12633257 1 18343028808863277067
12644460 14 18129958887058981461
13083527 12 18342174466557843761
133893 2 18126260146759197796
13544653 18 18041286478192834483
13583140 156 18334565820318568775
14341114 328 18341899567033976234
14787075 74 18260274048881489258
14840074 17 18201434813866176056
14955137 171 17632027394046900638
15324884 4 17414156802676368804
15475509 35 17825417264995429851
15927050 60 17908426106208693830
16120349 306 17767380737529204232
17492 54 18265915699115436652
1813 80 18343587312986944041
19862831 5 13190347859179992335
20691752 17 18266163114800990980
21304303 282 16961226113150614428
21344244 78 17846228765261487473
21421861 104 18057634064735902353
21756936 100 14116643529234272466
23419403 2 18114167645120871229
23559900 14 17313099770129084703
244849 19 17896296135017513293
3187 122 18197777708762912476
3411729 13 18128268959141191041
392239 28 18410293639931000922
394222 165 17629783398415840697
469060 322 17985235565789472310
57527293 21 17986962846980274611
6287921 2 17203610367754235710
6669772 16 18116994601702237920
7064713 232 16845575296826715427
7495541 125 18261110794040778922

> <PUBCHEM_SHAPE_MULTIPOLES>
548.37
10.52
3.73
2.01
5.1
3.53
0.42
-6.5
-4.01
-4.68
-0.76
0.57
-0.91
-0.25

> <PUBCHEM_SHAPE_SELFOVERLAP>
1162.613

> <PUBCHEM_SHAPE_VOLUME>
317.5

> <PUBCHEM_COORDINATE_TYPE>
2
5
10

