1473296
  -OEChem-06302411133D

 38 41  0     0  0  0  0  0  0999 V2000
    6.8978   -1.0598    1.1207 Cl  0  0  0  0  0  0  0  0  0  0  0  0
    7.5043    1.8319   -0.2000 Cl  0  0  0  0  0  0  0  0  0  0  0  0
   -5.9816    2.3638    0.1935 S   0  0  0  0  0  0  0  0  0  0  0  0
    1.0600    0.6536   -0.0515 O   0  0  0  0  0  0  0  0  0  0  0  0
    1.6984   -1.5626   -0.1494 O   0  0  0  0  0  0  0  0  0  0  0  0
   -3.4730    1.8377    0.1085 N   0  0  0  0  0  0  0  0  0  0  0  0
   -4.6053   -0.0875    0.0619 N   0  0  0  0  0  0  0  0  0  0  0  0
   -0.2355    0.1197   -0.0402 N   0  0  0  0  0  0  0  0  0  0  0  0
   -2.5188    0.8689    0.0459 C   0  0  0  0  0  0  0  0  0  0  0  0
   -3.2430   -0.3098    0.0181 C   0  0  0  0  0  0  0  0  0  0  0  0
   -4.6828    1.2132    0.1152 C   0  0  0  0  0  0  0  0  0  0  0  0
   -2.6698   -1.6246   -0.0479 C   0  0  0  0  0  0  0  0  0  0  0  0
   -3.5125    3.2106    0.1633 C   0  0  0  0  0  0  0  0  0  0  0  0
   -1.1077    1.0905    0.0192 C   0  0  0  0  0  0  0  0  0  0  0  0
   -4.7766    3.6639    0.2135 C   0  0  0  0  0  0  0  0  0  0  0  0
   -2.3607   -2.3106    1.1268 C   0  0  0  0  0  0  0  0  0  0  0  0
   -2.4221   -2.2161   -1.2867 C   0  0  0  0  0  0  0  0  0  0  0  0
   -1.8036   -3.5877    1.0627 C   0  0  0  0  0  0  0  0  0  0  0  0
   -1.8650   -3.4934   -1.3507 C   0  0  0  0  0  0  0  0  0  0  0  0
   -1.5559   -4.1791   -0.1760 C   0  0  0  0  0  0  0  0  0  0  0  0
    3.3394    0.1651   -0.1270 C   0  0  0  0  0  0  0  0  0  0  0  0
    4.3506   -0.5917    0.4282 C   0  0  0  0  0  0  0  0  0  0  0  0
    3.5718    1.4014   -0.6937 C   0  0  0  0  0  0  0  0  0  0  0  0
    1.9532   -0.3684   -0.1135 C   0  0  0  0  0  0  0  0  0  0  0  0
    5.6521   -0.0899    0.4160 C   0  0  0  0  0  0  0  0  0  0  0  0
    4.8731    1.9031   -0.7059 C   0  0  0  0  0  0  0  0  0  0  0  0
    5.9133    1.1575   -0.1511 C   0  0  0  0  0  0  0  0  0  0  0  0
   -2.6112    3.8044    0.1634 H   0  0  0  0  0  0  0  0  0  0  0  0
   -0.7537    2.1367    0.0511 H   0  0  0  0  0  0  0  0  0  0  0  0
   -5.0647    4.7046    0.2616 H   0  0  0  0  0  0  0  0  0  0  0  0
   -2.5475   -1.8634    2.1003 H   0  0  0  0  0  0  0  0  0  0  0  0
   -2.6571   -1.6948   -2.2116 H   0  0  0  0  0  0  0  0  0  0  0  0
   -1.5624   -4.1216    1.9772 H   0  0  0  0  0  0  0  0  0  0  0  0
   -1.6714   -3.9538   -2.3151 H   0  0  0  0  0  0  0  0  0  0  0  0
   -1.1217   -5.1733   -0.2259 H   0  0  0  0  0  0  0  0  0  0  0  0
    4.1409   -1.5613    0.8724 H   0  0  0  0  0  0  0  0  0  0  0  0
    2.7829    1.9956   -1.1450 H   0  0  0  0  0  0  0  0  0  0  0  0
    5.0595    2.8755   -1.1551 H   0  0  0  0  0  0  0  0  0  0  0  0
  1 25  1  0  0  0  0
  2 27  1  0  0  0  0
  3 11  1  0  0  0  0
  3 15  1  0  0  0  0
  4  8  1  0  0  0  0
  4 24  1  0  0  0  0
  5 24  2  0  0  0  0
  6  9  1  0  0  0  0
  6 11  1  0  0  0  0
  6 13  1  0  0  0  0
  7 10  1  0  0  0  0
  7 11  2  0  0  0  0
  8 14  2  3  0  0  0
  9 10  2  0  0  0  0
  9 14  1  0  0  0  0
 10 12  1  0  0  0  0
 12 16  2  0  0  0  0
 12 17  1  0  0  0  0
 13 15  2  0  0  0  0
 13 28  1  0  0  0  0
 14 29  1  0  0  0  0
 15 30  1  0  0  0  0
 16 18  1  0  0  0  0
 16 31  1  0  0  0  0
 17 19  2  0  0  0  0
 17 32  1  0  0  0  0
 18 20  2  0  0  0  0
 18 33  1  0  0  0  0
 19 20  1  0  0  0  0
 19 34  1  0  0  0  0
 20 35  1  0  0  0  0
 21 22  2  0  0  0  0
 21 23  1  0  0  0  0
 21 24  1  0  0  0  0
 22 25  1  0  0  0  0
 22 36  1  0  0  0  0
 23 26  2  0  0  0  0
 23 37  1  0  0  0  0
 25 27  2  0  0  0  0
 26 27  1  0  0  0  0
 26 38  1  0  0  0  0
M  END
> <PUBCHEM_COMPOUND_CID>
1473296

> <PUBCHEM_CONFORMER_RMSD>
0.8

> <PUBCHEM_CONFORMER_DIVERSEORDER>
1
119
150
95
33
183
122
37
200
170
43
60
9
138
175
56
171
215
61
151
127
91
182
39
199
35
65
108
12
115
110
3
203
55
99
117
53
174
16
135
189
165
77
13
105
216
68
58
24
156
157
120
78
209
97
87
137
15
196
98
49
213
147
205
208
206
217
82
32
81
67
190
71
159
18
210
197
179
101
62
202
173
103
14
181
125
164
198
41
73
17
186
85
96
118
34
70
166
129
130
107
193
57
50
146
148
214
185
128
48
201
2
75
144
172
178
38
7
54
63
76
142
143
133
4
124
89
5
131
116
191
27
47
113
25
90
59
192
168
121
88
160
149
109
163
152
40
92
26
112
180
161
64
80
10
136
153
187
86
22
184
132
83
207
45
155
139
6
169
79
141
84
145
102
69
167
176
211
134
177
23
74
188
36
126
111
218
44
11
204
42
154
94
219
158
106
140
104
52
212
100
162
123
51
114
195
31
46
93
28
194
29
30
220
66
21
8
19
20
72

> <PUBCHEM_MMFF94_PARTIAL_CHARGES>
38
1 -0.18
10 0.17
11 0.24
12 0.05
13 -0.18
14 0.47
15 -0.05
16 -0.15
17 -0.15
18 -0.15
19 -0.15
2 -0.18
20 -0.15
21 0.09
22 -0.15
23 -0.15
24 0.63
25 0.18
26 -0.15
27 0.18
28 0.15
29 0.06
3 -0.16
30 0.15
31 0.15
32 0.15
33 0.15
34 0.15
35 0.15
36 0.15
37 0.15
38 0.15
4 -0.09
5 -0.57
6 0.33
7 -0.57
8 -0.51
9 -0.24

> <PUBCHEM_EFFECTIVE_ROTOR_COUNT>
5

> <PUBCHEM_PHARMACOPHORE_FEATURES>
7
1 5 acceptor
1 8 acceptor
3 6 7 11 cation
5 3 6 11 13 15 rings
5 6 7 9 10 11 rings
6 12 16 17 18 19 20 rings
6 21 22 23 25 26 27 rings

> <PUBCHEM_HEAVY_ATOM_COUNT>
27

> <PUBCHEM_ATOM_DEF_STEREO_COUNT>
0

> <PUBCHEM_ATOM_UDEF_STEREO_COUNT>
0

> <PUBCHEM_BOND_DEF_STEREO_COUNT>
0

> <PUBCHEM_BOND_UDEF_STEREO_COUNT>
1

> <PUBCHEM_ISOTOPIC_ATOM_COUNT>
0

> <PUBCHEM_COMPONENT_COUNT>
1

> <PUBCHEM_CACTVS_TAUTO_COUNT>
1

> <PUBCHEM_CONFORMER_ID>
00167B1000000001

> <PUBCHEM_MMFF94_ENERGY>
71.5993

> <PUBCHEM_FEATURE_SELFOVERLAP>
35.789

> <PUBCHEM_SHAPE_FINGERPRINT>
10190206 1 18272354371005168229
10411042 1 17834958951318664199
10483366 6 18057587958668876735
10595046 47 18262800817223543852
10675989 125 17765159371294647601
10940486 97 18335987578963648636
11227688 84 17114383096152630262
12107183 9 18262791849326789330
12166972 35 11959432505941404259
12616971 3 17240483641564770412
12788726 201 18338505465403226171
14251757 5 18341615948952779929
14251764 75 18197788700133044529
14659021 117 18052524762639682818
14790565 3 18266744588943461473
14844126 61 18265617765476180339
15131766 46 15794009114498143463
15250474 111 18335971061163018978
15400415 2 18410855430501493968
15463212 79 18334005095221341235
15927050 60 18340767040320195895
16087824 20 18340486769004823447
16719943 64 18411136905414680449
17844677 252 18266465497963334756
20101258 96 18050296061338696963
20511986 3 18114732789913616432
20554085 129 17985526885258389665
21133410 171 17189194817027791350
21236236 1 18338797930973997558
21859007 373 17460869584073533109
229767 44 18333733485663703477
23559900 14 18128539258744892510
23728640 28 18410857698413356283
249057 3 18336828594227128564
25019877 29 18342745087924158965
3411729 13 18049726218490455169
3610482 184 18042702739690388188
4073 2 18187088399458845722
5104073 3 18261664966019784808
5171179 24 17628625646498833273
5265222 85 18341895216231605400
5364581 5 17983561181848820056
559249 180 18409163290506338402
58260988 114 16371582521593861699
6327066 14 18337951186988626277
6700243 42 17623893340100341302
7288768 16 17967255290932573539
9981440 41 18337116662036940707

> <PUBCHEM_SHAPE_MULTIPOLES>
536.55
16.87
4.68
0.95
26.95
2.78
0.04
-12.95
-1.85
-7.49
0.15
0.09
0.63
-1.49

> <PUBCHEM_SHAPE_SELFOVERLAP>
1159.528

> <PUBCHEM_SHAPE_VOLUME>
298.5

> <PUBCHEM_COORDINATE_TYPE>
2
5
10

