154040923
  -OEChem-06302411133D

 51 54  0     0  0  0  0  0  0999 V2000
    4.8392   -2.1727    0.1854 Cl  0  0  0  0  0  0  0  0  0  0  0  0
    3.4225   -4.4912    1.9433 Cl  0  0  0  0  0  0  0  0  0  0  0  0
   -5.3127   -0.4125    2.0934 S   0  0  0  0  0  0  0  0  0  0  0  0
   -0.7866   -0.8009   -1.5744 O   0  0  0  0  0  0  0  0  0  0  0  0
   -3.9917    0.0131   -0.0634 N   0  0  0  0  0  0  0  0  0  0  0  0
   -2.7509    0.6740    1.6728 N   0  0  0  0  0  0  0  0  0  0  0  0
   -1.5126   -0.1100   -2.5544 N   0  0  0  0  0  0  0  0  0  0  0  0
    3.1932    3.1794    0.1910 C   0  0  0  0  0  0  0  0  0  0  0  0
    1.7852    2.5662    0.2678 C   0  0  0  0  0  0  0  0  0  0  0  0
    4.2720    2.3635    0.9388 C   0  0  0  0  0  0  0  0  0  0  0  0
    3.6373    3.2774   -1.2846 C   0  0  0  0  0  0  0  0  0  0  0  0
    3.1789    4.5931    0.8118 C   0  0  0  0  0  0  0  0  0  0  0  0
    0.7141    3.1977   -0.3642 C   0  0  0  0  0  0  0  0  0  0  0  0
    1.5791    1.3783    0.9693 C   0  0  0  0  0  0  0  0  0  0  0  0
   -0.7693    1.4537    0.4068 C   0  0  0  0  0  0  0  0  0  0  0  0
   -0.5632    2.6415   -0.2947 C   0  0  0  0  0  0  0  0  0  0  0  0
    0.3018    0.8221    1.0389 C   0  0  0  0  0  0  0  0  0  0  0  0
   -2.0845    0.8815    0.4791 C   0  0  0  0  0  0  0  0  0  0  0  0
   -2.8364    0.4781   -0.6126 C   0  0  0  0  0  0  0  0  0  0  0  0
   -3.8828    0.1542    1.2865 C   0  0  0  0  0  0  0  0  0  0  0  0
   -5.1718   -0.5320   -0.5106 C   0  0  0  0  0  0  0  0  0  0  0  0
   -2.5344    0.5155   -2.0084 C   0  0  0  0  0  0  0  0  0  0  0  0
   -5.9974   -0.8206    0.5097 C   0  0  0  0  0  0  0  0  0  0  0  0
    0.3001   -1.4562   -2.2108 C   0  0  0  0  0  0  0  0  0  0  0  0
    1.0929   -2.2036   -1.1792 C   0  0  0  0  0  0  0  0  0  0  0  0
    2.4393   -1.9000   -0.9776 C   0  0  0  0  0  0  0  0  0  0  0  0
    0.4820   -3.2025   -0.4210 C   0  0  0  0  0  0  0  0  0  0  0  0
    3.1749   -2.5952   -0.0178 C   0  0  0  0  0  0  0  0  0  0  0  0
    1.2177   -3.8977    0.5388 C   0  0  0  0  0  0  0  0  0  0  0  0
    2.5641   -3.5941    0.7404 C   0  0  0  0  0  0  0  0  0  0  0  0
    5.2549    2.8428    0.8527 H   0  0  0  0  0  0  0  0  0  0  0  0
    4.0525    2.2824    2.0099 H   0  0  0  0  0  0  0  0  0  0  0  0
    4.3760    1.3527    0.5274 H   0  0  0  0  0  0  0  0  0  0  0  0
    2.9861    3.9347   -1.8711 H   0  0  0  0  0  0  0  0  0  0  0  0
    3.6289    2.2917   -1.7650 H   0  0  0  0  0  0  0  0  0  0  0  0
    4.6541    3.6792   -1.3656 H   0  0  0  0  0  0  0  0  0  0  0  0
    2.8381    4.5630    1.8535 H   0  0  0  0  0  0  0  0  0  0  0  0
    2.5177    5.2777    0.2692 H   0  0  0  0  0  0  0  0  0  0  0  0
    4.1800    5.0397    0.8012 H   0  0  0  0  0  0  0  0  0  0  0  0
    0.8467    4.1238   -0.9158 H   0  0  0  0  0  0  0  0  0  0  0  0
    2.3753    0.8453    1.4767 H   0  0  0  0  0  0  0  0  0  0  0  0
   -1.3856    3.1536   -0.7887 H   0  0  0  0  0  0  0  0  0  0  0  0
    0.1583   -0.1058    1.5878 H   0  0  0  0  0  0  0  0  0  0  0  0
   -5.3590   -0.6869   -1.5623 H   0  0  0  0  0  0  0  0  0  0  0  0
   -3.2308    1.0405   -2.6822 H   0  0  0  0  0  0  0  0  0  0  0  0
   -6.9817   -1.2562    0.4117 H   0  0  0  0  0  0  0  0  0  0  0  0
    0.9228   -0.7102   -2.7195 H   0  0  0  0  0  0  0  0  0  0  0  0
   -0.0740   -2.1617   -2.9630 H   0  0  0  0  0  0  0  0  0  0  0  0
    2.9128   -1.1189   -1.5684 H   0  0  0  0  0  0  0  0  0  0  0  0
   -0.5659   -3.4489   -0.5702 H   0  0  0  0  0  0  0  0  0  0  0  0
    0.7257   -4.6733    1.1204 H   0  0  0  0  0  0  0  0  0  0  0  0
  1 28  1  0  0  0  0
  2 30  1  0  0  0  0
  3 20  1  0  0  0  0
  3 23  1  0  0  0  0
  4  7  1  0  0  0  0
  4 24  1  0  0  0  0
  5 19  1  0  0  0  0
  5 20  1  0  0  0  0
  5 21  1  0  0  0  0
  6 18  1  0  0  0  0
  6 20  2  0  0  0  0
  7 22  2  0  0  0  0
  8  9  1  0  0  0  0
  8 10  1  0  0  0  0
  8 11  1  0  0  0  0
  8 12  1  0  0  0  0
  9 13  2  0  0  0  0
  9 14  1  0  0  0  0
 10 31  1  0  0  0  0
 10 32  1  0  0  0  0
 10 33  1  0  0  0  0
 11 34  1  0  0  0  0
 11 35  1  0  0  0  0
 11 36  1  0  0  0  0
 12 37  1  0  0  0  0
 12 38  1  0  0  0  0
 12 39  1  0  0  0  0
 13 16  1  0  0  0  0
 13 40  1  0  0  0  0
 14 17  2  0  0  0  0
 14 41  1  0  0  0  0
 15 16  2  0  0  0  0
 15 17  1  0  0  0  0
 15 18  1  0  0  0  0
 16 42  1  0  0  0  0
 17 43  1  0  0  0  0
 18 19  2  0  0  0  0
 19 22  1  0  0  0  0
 21 23  2  0  0  0  0
 21 44  1  0  0  0  0
 22 45  1  0  0  0  0
 23 46  1  0  0  0  0
 24 25  1  0  0  0  0
 24 47  1  0  0  0  0
 24 48  1  0  0  0  0
 25 26  2  0  0  0  0
 25 27  1  0  0  0  0
 26 28  1  0  0  0  0
 26 49  1  0  0  0  0
 27 29  2  0  0  0  0
 27 50  1  0  0  0  0
 28 30  2  0  0  0  0
 29 30  1  0  0  0  0
 29 51  1  0  0  0  0
M  END
> <PUBCHEM_COMPOUND_CID>
154040923

> <PUBCHEM_CONFORMER_RMSD>
0.8

> <PUBCHEM_CONFORMER_DIVERSEORDER>
2
198
186
19
115
139
123
60
158
64
195
93
159
53
102
100
194
182
3
83
66
133
148
1
185
40
126
10
59
32
142
190
122
166
99
61
109
153
184
197
26
63
171
180
45
52
141
46
34
193
51
167
189
7
76
117
95
25
129
130
170
5
176
31
128
143
8
124
72
169
21
48
118
78
149
6
27
120
14
88
30
70
89
192
77
121
9
177
178
20
140
24
116
107
151
97
191
92
17
152
4
113
131
35
71
67
181
110
68
127
75
82
50
55
106
183
155
47
57
43
37
174
29
28
179
163
172
86
173
125
36
44
196
87
38
91
105
103
73
16
12
162
119
79
156
39
62
147
42
33
85
11
137
146
138
134
81
41
114
108
98
135
101
187
168
74
111
94
164
175
150
165
144
188
104
15
13
136
58
161
80
154
157
18
23
49
56
160
90
65
145
54
96
84
112
22
132
69

> <PUBCHEM_MMFF94_PARTIAL_CHARGES>
37
1 -0.18
13 -0.15
14 -0.15
15 0.05
16 -0.15
17 -0.15
18 0.17
19 -0.24
2 -0.18
20 0.24
21 -0.18
22 0.47
23 -0.05
24 0.42
25 -0.14
26 -0.15
27 -0.15
28 0.18
29 -0.15
3 -0.16
30 0.18
4 -0.22
40 0.15
41 0.15
42 0.15
43 0.15
44 0.15
45 0.06
46 0.15
49 0.15
5 0.33
50 0.15
51 0.15
6 -0.57
7 -0.51
8 0.14
9 -0.14

> <PUBCHEM_EFFECTIVE_ROTOR_COUNT>
6

> <PUBCHEM_PHARMACOPHORE_FEATURES>
7
1 7 acceptor
3 5 6 20 cation
4 8 10 11 12 hydrophobe
5 3 5 20 21 23 rings
5 5 6 18 19 20 rings
6 25 26 27 28 29 30 rings
6 9 13 14 15 16 17 rings

> <PUBCHEM_HEAVY_ATOM_COUNT>
30

> <PUBCHEM_ATOM_DEF_STEREO_COUNT>
0

> <PUBCHEM_ATOM_UDEF_STEREO_COUNT>
0

> <PUBCHEM_BOND_DEF_STEREO_COUNT>
1

> <PUBCHEM_BOND_UDEF_STEREO_COUNT>
0

> <PUBCHEM_ISOTOPIC_ATOM_COUNT>
0

> <PUBCHEM_COMPONENT_COUNT>
1

> <PUBCHEM_CACTVS_TAUTO_COUNT>
-1

> <PUBCHEM_CONFORMER_ID>
092E7A5B00000002

> <PUBCHEM_MMFF94_ENERGY>
89.3591

> <PUBCHEM_FEATURE_SELFOVERLAP>
35.774

> <PUBCHEM_SHAPE_FINGERPRINT>
10032420 55 18116450154219553022
10382601 240 18272661172523139181
10674148 151 17202786894244993652
107951 10 17981055420259784244
1100329 8 18412544349339899046
11135609 187 17837748373325613869
11552529 35 17252588980644696610
11578080 2 18260552178543011269
11963148 33 17981316005291871335
12156800 1 17322142325275414526
12422481 6 17630321931016103419
12592029 89 18341055236814599437
12597179 24 18117004488263136339
12788726 201 17400102776119421728
12977781 61 17896048801021045827
13383668 40 18116455746747287227
133893 2 18199162084333622341
14787075 74 18262533489273442582
14840074 17 18130779028317972346
14955137 171 17631461076797246222
15324884 4 17767376034602811632
15463212 79 17910659192323129137
15475509 35 17899453919918137035
15927050 60 18197499747296543998
16120349 306 18055330677964555824
17138139 8 17198522021414909495
1813 80 18128259986611423535
19319366 153 18127972107854526424
20101258 96 17979635637231302672
20764821 26 18265615557994735306
20771845 171 17969229000060988957
21049683 118 17486757851690005041
21421861 104 17986419744582139321
21796203 349 17978828681353983139
22956985 138 18333447629772943074
23419403 2 18187640254984279493
23559900 14 17676769769524594143
244849 19 18041264488561439005
3187 122 17838328580124768386
3411729 13 18059027163179779153
35225 105 17122285243418949703
3759504 43 17981329207123948941
392239 28 18411698764083145770
394222 165 17702407154989908417
4058900 60 18265633141559462965
4340502 62 18127425655497872357
469060 322 17696719226394079335
5309563 4 18338797793540026776
56638632 33 17968381143320566587
57527358 35 15293585931150404525
6669772 16 18337959020982080340
90316 7 17622174459944533615

> <PUBCHEM_SHAPE_MULTIPOLES>
604.16
9.91
6.13
1.94
11.08
0.42
-0.53
1.86
3.75
-11.91
1.67
0.97
0.65
-0.45

> <PUBCHEM_SHAPE_SELFOVERLAP>
1286.428

> <PUBCHEM_SHAPE_VOLUME>
342.2

> <PUBCHEM_COORDINATE_TYPE>
2
5
10

