154040927
  -OEChem-06302411133D

 45 49  0     0  0  0  0  0  0999 V2000
    5.4409    0.0060    0.1753 Cl  0  0  0  0  0  0  0  0  0  0  0  0
    5.0020   -2.9417    1.4377 Cl  0  0  0  0  0  0  0  0  0  0  0  0
   -4.2600   -2.0084    2.3381 S   0  0  0  0  0  0  0  0  0  0  0  0
   -0.2974   -0.5105   -1.6797 O   0  0  0  0  0  0  0  0  0  0  0  0
   -3.4144   -1.2592    0.0357 N   0  0  0  0  0  0  0  0  0  0  0  0
   -2.6494    0.1692    1.5737 N   0  0  0  0  0  0  0  0  0  0  0  0
   -1.3040   -0.4271   -2.6515 N   0  0  0  0  0  0  0  0  0  0  0  0
   -1.3947    1.6814    0.0555 C   0  0  0  0  0  0  0  0  0  0  0  0
   -2.2220    0.5269    0.3082 C   0  0  0  0  0  0  0  0  0  0  0  0
   -2.6851   -0.3464   -0.6627 C   0  0  0  0  0  0  0  0  0  0  0  0
   -0.1180    1.8316    0.6209 C   0  0  0  0  0  0  0  0  0  0  0  0
    0.6365    2.9925    0.3276 C   0  0  0  0  0  0  0  0  0  0  0  0
   -3.3565   -0.9032    1.3486 C   0  0  0  0  0  0  0  0  0  0  0  0
   -1.9199    2.6618   -0.7868 C   0  0  0  0  0  0  0  0  0  0  0  0
    0.4266    0.8549    1.4706 C   0  0  0  0  0  0  0  0  0  0  0  0
   -4.1512   -2.3856   -0.2427 C   0  0  0  0  0  0  0  0  0  0  0  0
    0.0921    3.9692   -0.5221 C   0  0  0  0  0  0  0  0  0  0  0  0
   -1.1780    3.8035   -1.0750 C   0  0  0  0  0  0  0  0  0  0  0  0
    1.9134    3.1426    0.8927 C   0  0  0  0  0  0  0  0  0  0  0  0
   -2.4863   -0.3466   -2.0774 C   0  0  0  0  0  0  0  0  0  0  0  0
   -4.6773   -2.9169    0.8739 C   0  0  0  0  0  0  0  0  0  0  0  0
    1.6970    1.0205    2.0232 C   0  0  0  0  0  0  0  0  0  0  0  0
    2.4388    2.1621    1.7347 C   0  0  0  0  0  0  0  0  0  0  0  0
    0.9531   -0.5951   -2.3464 C   0  0  0  0  0  0  0  0  0  0  0  0
    1.9723   -1.1655   -1.4045 C   0  0  0  0  0  0  0  0  0  0  0  0
    3.1079   -0.4266   -1.0729 C   0  0  0  0  0  0  0  0  0  0  0  0
    1.7834   -2.4358   -0.8603 C   0  0  0  0  0  0  0  0  0  0  0  0
    4.0546   -0.9580   -0.1971 C   0  0  0  0  0  0  0  0  0  0  0  0
    2.7300   -2.9672    0.0156 C   0  0  0  0  0  0  0  0  0  0  0  0
    3.8657   -2.2283    0.3471 C   0  0  0  0  0  0  0  0  0  0  0  0
   -2.9111    2.5636   -1.2239 H   0  0  0  0  0  0  0  0  0  0  0  0
   -0.0991   -0.0633    1.7163 H   0  0  0  0  0  0  0  0  0  0  0  0
   -4.2603   -2.7535   -1.2516 H   0  0  0  0  0  0  0  0  0  0  0  0
    0.6542    4.8697   -0.7609 H   0  0  0  0  0  0  0  0  0  0  0  0
   -1.5882    4.5674   -1.7292 H   0  0  0  0  0  0  0  0  0  0  0  0
    2.5117    4.0262    0.6804 H   0  0  0  0  0  0  0  0  0  0  0  0
   -3.3728   -0.3479   -2.7321 H   0  0  0  0  0  0  0  0  0  0  0  0
   -5.2941   -3.8037    0.9122 H   0  0  0  0  0  0  0  0  0  0  0  0
    2.1097    0.2551    2.6741 H   0  0  0  0  0  0  0  0  0  0  0  0
    3.4286    2.2892    2.1635 H   0  0  0  0  0  0  0  0  0  0  0  0
    1.2353    0.4087   -2.6841 H   0  0  0  0  0  0  0  0  0  0  0  0
    0.8864   -1.2455   -3.2283 H   0  0  0  0  0  0  0  0  0  0  0  0
    3.2520    0.5644   -1.4977 H   0  0  0  0  0  0  0  0  0  0  0  0
    0.9032   -3.0214   -1.1124 H   0  0  0  0  0  0  0  0  0  0  0  0
    2.5666   -3.9588    0.4303 H   0  0  0  0  0  0  0  0  0  0  0  0
  1 28  1  0  0  0  0
  2 30  1  0  0  0  0
  3 13  1  0  0  0  0
  3 21  1  0  0  0  0
  4  7  1  0  0  0  0
  4 24  1  0  0  0  0
  5 10  1  0  0  0  0
  5 13  1  0  0  0  0
  5 16  1  0  0  0  0
  6  9  1  0  0  0  0
  6 13  2  0  0  0  0
  7 20  2  0  0  0  0
  8  9  1  0  0  0  0
  8 11  1  0  0  0  0
  8 14  2  0  0  0  0
  9 10  2  0  0  0  0
 10 20  1  0  0  0  0
 11 12  1  0  0  0  0
 11 15  2  0  0  0  0
 12 17  1  0  0  0  0
 12 19  2  0  0  0  0
 14 18  1  0  0  0  0
 14 31  1  0  0  0  0
 15 22  1  0  0  0  0
 15 32  1  0  0  0  0
 16 21  2  0  0  0  0
 16 33  1  0  0  0  0
 17 18  2  0  0  0  0
 17 34  1  0  0  0  0
 18 35  1  0  0  0  0
 19 23  1  0  0  0  0
 19 36  1  0  0  0  0
 20 37  1  0  0  0  0
 21 38  1  0  0  0  0
 22 23  2  0  0  0  0
 22 39  1  0  0  0  0
 23 40  1  0  0  0  0
 24 25  1  0  0  0  0
 24 41  1  0  0  0  0
 24 42  1  0  0  0  0
 25 26  2  0  0  0  0
 25 27  1  0  0  0  0
 26 28  1  0  0  0  0
 26 43  1  0  0  0  0
 27 29  2  0  0  0  0
 27 44  1  0  0  0  0
 28 30  2  0  0  0  0
 29 30  1  0  0  0  0
 29 45  1  0  0  0  0
M  END
> <PUBCHEM_COMPOUND_CID>
154040927

> <PUBCHEM_CONFORMER_RMSD>
0.8

> <PUBCHEM_CONFORMER_DIVERSEORDER>
1
180
116
239
133
344
378
61
403
280
20
132
9
247
27
241
359
166
235
301
94
405
107
292
281
58
191
399
367
402
322
245
356
151
208
112
276
93
312
14
192
187
382
178
221
308
167
135
16
330
147
398
96
390
262
176
86
172
10
160
369
184
169
278
49
370
404
287
377
290
46
360
28
36
222
215
79
77
252
162
238
161
354
232
391
387
227
271
183
41
57
400
106
326
67
338
158
69
197
263
379
124
117
13
121
392
355
8
40
219
128
207
248
2
258
381
196
325
126
388
173
113
140
35
243
6
352
199
189
376
299
195
209
122
85
100
250
304
130
66
319
201
230
84
148
119
7
95
303
333
26
22
283
300
123
345
5
144
194
39
291
213
373
309
91
111
244
273
223
125
97
33
52
42
267
156
313
138
206
129
217
90
25
37
109
218
143
11
337
18
251
282
279
203
394
220
104
364
228
21
285
159
200
78
270
177
233
19
24
353
168
268
383
351
101
150
368
163
134
289
397
108
83
47
81
371
65
341
347
229
204
152
321
358
34
401
4
76
274
329
48
306
317
226
320
372
174
55
3
339
334
17
318
311
366
179
393
350
327
56
202
75
15
72
23
297
181
246
275
110
53
396
198
254
141
257
205
137
38
118
73
363
374
164
293
186
87
277
295
266
316
98
99
68
193
43
102
105
214
385
265
384
60
70
190
170
240
380
185
249
340
92
242
63
307
62
210
256
153
45
182
375
29
284
136
103
286
216
59
259
324
305
264
171
332
343
32
331
389
349
336
224
51
115
71
142
74
255
328
237
31
145
120
155
302
236
357
44
231
114
54
89
30
253
365
234
127
269
12
154
315
348
386
64
88
361
335
323
131
175
260
296
149
165
82
188
261
310
80
346
272
50
342
288
157
212
362
211
395
314
139
294
298
146
225

> <PUBCHEM_MMFF94_PARTIAL_CHARGES>
41
1 -0.18
10 -0.24
13 0.24
14 -0.15
15 -0.15
16 -0.18
17 -0.15
18 -0.15
19 -0.15
2 -0.18
20 0.47
21 -0.05
22 -0.15
23 -0.15
24 0.42
25 -0.14
26 -0.15
27 -0.15
28 0.18
29 -0.15
3 -0.16
30 0.18
31 0.15
32 0.15
33 0.15
34 0.15
35 0.15
36 0.15
37 0.06
38 0.15
39 0.15
4 -0.22
40 0.15
43 0.15
44 0.15
45 0.15
5 0.33
6 -0.57
7 -0.51
8 0.05
9 0.17

> <PUBCHEM_EFFECTIVE_ROTOR_COUNT>
5

> <PUBCHEM_PHARMACOPHORE_FEATURES>
7
1 7 acceptor
3 5 6 13 cation
5 3 5 13 16 21 rings
5 5 6 9 10 13 rings
6 11 12 15 19 22 23 rings
6 25 26 27 28 29 30 rings
6 8 11 12 14 17 18 rings

> <PUBCHEM_HEAVY_ATOM_COUNT>
30

> <PUBCHEM_ATOM_DEF_STEREO_COUNT>
0

> <PUBCHEM_ATOM_UDEF_STEREO_COUNT>
0

> <PUBCHEM_BOND_DEF_STEREO_COUNT>
1

> <PUBCHEM_BOND_UDEF_STEREO_COUNT>
0

> <PUBCHEM_ISOTOPIC_ATOM_COUNT>
0

> <PUBCHEM_COMPONENT_COUNT>
1

> <PUBCHEM_CACTVS_TAUTO_COUNT>
-1

> <PUBCHEM_CONFORMER_ID>
092E7A5F00000001

> <PUBCHEM_MMFF94_ENERGY>
88.1188

> <PUBCHEM_FEATURE_SELFOVERLAP>
35.802

> <PUBCHEM_SHAPE_FINGERPRINT>
10032420 55 18334017190281841280
10382601 240 17986114234462089468
10675989 125 16113455266626230584
10906281 52 17556862416882981712
11112662 9 17326617406425408347
11370993 70 17398670104089550348
11578080 2 18187083988205933125
12035758 1 18055363435817610201
12035759 4 14779260947210759627
12047536 79 18055663800476999923
12156800 1 10802096363412313364
12293681 25 18190436399111250285
12422481 6 17988925591299789560
12633257 1 17988938794209261555
133893 2 18058438988514079461
13583140 156 18125714600593605478
14363568 33 18197492029556843632
14787075 74 18338532931655248022
14840074 17 18059014007594867668
14856354 85 18272086055545327022
14955137 171 17346056540186776942
15422964 175 18264200477855287977
15475509 35 17465983684049804683
1813 80 18339662112621497593
19301679 30 18194977459886923747
20691752 17 18054499481238393804
20771845 35 18057862797192860331
21304303 282 17395548629244004308
21421861 104 17841185369670098315
23559900 14 18113612417703082589
244849 19 18116696586948648639
3380486 145 17559662950244210374
35225 105 17185083429037661475
392239 28 18269555095209020130
469060 322 18265920024131711416
513532 50 16083618317387262559
5309563 4 18338517550759974394
539174 4 17631159978099045061
57527293 21 18201446835131562522
57527358 35 15578424400088047749
6669772 16 17615422788678354076
9981440 41 17338976556903004406

> <PUBCHEM_SHAPE_MULTIPOLES>
604.16
8.85
4.79
2.23
2.65
2.88
-0.35
-10.01
3.21
0.21
0.65
-0.71
-0.39
1.52

> <PUBCHEM_SHAPE_SELFOVERLAP>
1323.238

> <PUBCHEM_SHAPE_VOLUME>
331.2

> <PUBCHEM_COORDINATE_TYPE>
2
5
10

