154040917
  -OEChem-06302411133D

 39 42  0     0  0  0  0  0  0999 V2000
   -2.7612   -2.1832    1.6509 Cl  0  0  0  0  0  0  0  0  0  0  0  0
   -5.5248   -0.2530    0.0585 Cl  0  0  0  0  0  0  0  0  0  0  0  0
   -5.0370    2.4024    1.8422 Cl  0  0  0  0  0  0  0  0  0  0  0  0
    4.5710    1.6422    2.1341 S   0  0  0  0  0  0  0  0  0  0  0  0
    0.2522    0.4443   -1.6079 O   0  0  0  0  0  0  0  0  0  0  0  0
    3.5160    0.7951   -0.0447 N   0  0  0  0  0  0  0  0  0  0  0  0
    2.5594   -0.2704    1.6702 N   0  0  0  0  0  0  0  0  0  0  0  0
    1.1891    0.0582   -2.5763 N   0  0  0  0  0  0  0  0  0  0  0  0
    2.6054   -0.0416   -0.6134 C   0  0  0  0  0  0  0  0  0  0  0  0
    2.0261   -0.6902    0.4654 C   0  0  0  0  0  0  0  0  0  0  0  0
    3.4429    0.6157    1.3031 C   0  0  0  0  0  0  0  0  0  0  0  0
    0.9960   -1.6865    0.3708 C   0  0  0  0  0  0  0  0  0  0  0  0
    4.4368    1.7220   -0.4718 C   0  0  0  0  0  0  0  0  0  0  0  0
    2.3570   -0.1733   -2.0139 C   0  0  0  0  0  0  0  0  0  0  0  0
    5.0932    2.2749    0.5623 C   0  0  0  0  0  0  0  0  0  0  0  0
   -0.2382   -1.4750    0.9849 C   0  0  0  0  0  0  0  0  0  0  0  0
    1.2307   -2.8664   -0.3353 C   0  0  0  0  0  0  0  0  0  0  0  0
   -1.2380   -2.4432    0.8930 C   0  0  0  0  0  0  0  0  0  0  0  0
    0.2308   -3.8347   -0.4272 C   0  0  0  0  0  0  0  0  0  0  0  0
   -2.0054    1.0968   -1.2425 C   0  0  0  0  0  0  0  0  0  0  0  0
   -0.9854    0.6815   -2.2615 C   0  0  0  0  0  0  0  0  0  0  0  0
   -1.0035   -3.6231    0.1869 C   0  0  0  0  0  0  0  0  0  0  0  0
   -3.1633    0.3397   -1.0644 C   0  0  0  0  0  0  0  0  0  0  0  0
   -1.7953    2.2413   -0.4733 C   0  0  0  0  0  0  0  0  0  0  0  0
   -4.1109    0.7269   -0.1168 C   0  0  0  0  0  0  0  0  0  0  0  0
   -2.7429    2.6285    0.4742 C   0  0  0  0  0  0  0  0  0  0  0  0
   -3.9006    1.8713    0.6524 C   0  0  0  0  0  0  0  0  0  0  0  0
    4.5738    1.9396   -1.5201 H   0  0  0  0  0  0  0  0  0  0  0  0
    3.2033   -0.4166   -2.6766 H   0  0  0  0  0  0  0  0  0  0  0  0
    5.8638    3.0284    0.4810 H   0  0  0  0  0  0  0  0  0  0  0  0
   -0.4246   -0.5543    1.5346 H   0  0  0  0  0  0  0  0  0  0  0  0
    2.1879   -3.0546   -0.8158 H   0  0  0  0  0  0  0  0  0  0  0  0
    0.4139   -4.7539   -0.9759 H   0  0  0  0  0  0  0  0  0  0  0  0
   -1.2994   -0.2319   -2.7813 H   0  0  0  0  0  0  0  0  0  0  0  0
   -0.8708    1.4785   -3.0066 H   0  0  0  0  0  0  0  0  0  0  0  0
   -1.7733   -4.3863    0.1070 H   0  0  0  0  0  0  0  0  0  0  0  0
   -3.3243   -0.5532   -1.6644 H   0  0  0  0  0  0  0  0  0  0  0  0
   -0.8977    2.8401   -0.6044 H   0  0  0  0  0  0  0  0  0  0  0  0
   -2.5629    3.5231    1.0649 H   0  0  0  0  0  0  0  0  0  0  0  0
  1 18  1  0  0  0  0
  2 25  1  0  0  0  0
  3 27  1  0  0  0  0
  4 11  1  0  0  0  0
  4 15  1  0  0  0  0
  5  8  1  0  0  0  0
  5 21  1  0  0  0  0
  6  9  1  0  0  0  0
  6 11  1  0  0  0  0
  6 13  1  0  0  0  0
  7 10  1  0  0  0  0
  7 11  2  0  0  0  0
  8 14  2  0  0  0  0
  9 10  2  0  0  0  0
  9 14  1  0  0  0  0
 10 12  1  0  0  0  0
 12 16  2  0  0  0  0
 12 17  1  0  0  0  0
 13 15  2  0  0  0  0
 13 28  1  0  0  0  0
 14 29  1  0  0  0  0
 15 30  1  0  0  0  0
 16 18  1  0  0  0  0
 16 31  1  0  0  0  0
 17 19  2  0  0  0  0
 17 32  1  0  0  0  0
 18 22  2  0  0  0  0
 19 22  1  0  0  0  0
 19 33  1  0  0  0  0
 20 21  1  0  0  0  0
 20 23  2  0  0  0  0
 20 24  1  0  0  0  0
 21 34  1  0  0  0  0
 21 35  1  0  0  0  0
 22 36  1  0  0  0  0
 23 25  1  0  0  0  0
 23 37  1  0  0  0  0
 24 26  2  0  0  0  0
 24 38  1  0  0  0  0
 25 27  2  0  0  0  0
 26 27  1  0  0  0  0
 26 39  1  0  0  0  0
M  END
> <PUBCHEM_COMPOUND_CID>
154040917

> <PUBCHEM_CONFORMER_RMSD>
0.8

> <PUBCHEM_CONFORMER_DIVERSEORDER>
1
255
188
342
447
225
129
430
444
160
299
164
387
467
331
153
369
334
41
337
418
480
346
443
282
478
217
214
136
321
349
383
77
339
76
347
410
106
312
89
155
481
350
215
64
459
135
440
167
362
483
471
311
65
186
133
143
51
415
293
474
452
59
294
368
460
229
329
421
33
379
149
116
309
12
472
406
166
399
117
61
470
66
161
132
477
385
31
237
475
194
292
142
123
182
318
289
70
340
30
203
235
462
246
296
423
15
162
416
404
83
55
308
323
378
16
260
465
103
431
458
261
250
60
264
36
24
402
305
287
206
429
267
158
281
178
32
125
476
10
236
22
40
52
482
121
398
330
322
108
180
278
150
126
425
434
197
285
428
448
271
301
338
376
68
46
34
413
35
319
14
254
170
344
335
3
356
226
159
110
9
442
275
248
173
208
354
2
238
315
205
74
78
358
244
187
361
433
113
332
5
382
81
298
401
213
6
263
7
348
134
360
357
92
50
364
230
290
28
181
29
353
336
101
79
374
367
177
69
207
93
4
37
239
39
104
333
352
84
219
403
384
168
202
326
372
341
392
469
112
286
45
262
165
91
75
258
8
320
152
390
327
435
38
48
11
183
419
307
62
313
63
130
272
249
438
422
288
119
306
223
456
457
407
18
233
251
479
370
242
375
100
120
409
13
25
405
140
351
73
114
280
247
111
58
216
365
137
23
411
446
291
185
53
57
317
408
276
343
94
54
270
163
196
118
148
302
389
268
381
461
316
303
473
102
371
259
192
449
212
17
95
109
324
145
189
201
27
26
147
198
241
391
445
209
19
154
67
284
72
98
388
424
269
220
432
82
314
224
436
366
232
184
124
373
42
426
99
122
107
127
195
199
380
87
157
265
277
228
463
90
49
451
396
175
218
266
417
257
400
204
71
47
44
179
464
231
304
193
96
97
88
221
377
176
174
325
151
363
222
144
156
43
115
191
393
243
252
227
256
21
427
412
414
146
274
240
80
345
86
171
439
328
386
128
245
234
310
279
138
190
450
210
20
169
56
453
200
105
455
172
139
253
131
141
355
468
437
273
283
466
420
295
454
359
85
300
211
297
395
441
394
397

> <PUBCHEM_MMFF94_PARTIAL_CHARGES>
37
1 -0.18
10 0.17
11 0.24
12 0.05
13 -0.18
14 0.47
15 -0.05
16 -0.15
17 -0.15
18 0.18
19 -0.15
2 -0.18
20 -0.14
21 0.42
22 -0.15
23 -0.15
24 -0.15
25 0.18
26 -0.15
27 0.18
28 0.15
29 0.06
3 -0.18
30 0.15
31 0.15
32 0.15
33 0.15
36 0.15
37 0.15
38 0.15
39 0.15
4 -0.16
5 -0.22
6 0.33
7 -0.57
8 -0.51
9 -0.24

> <PUBCHEM_EFFECTIVE_ROTOR_COUNT>
5

> <PUBCHEM_PHARMACOPHORE_FEATURES>
6
1 8 acceptor
3 6 7 11 cation
5 4 6 11 13 15 rings
5 6 7 9 10 11 rings
6 12 16 17 18 19 22 rings
6 20 23 24 25 26 27 rings

> <PUBCHEM_HEAVY_ATOM_COUNT>
27

> <PUBCHEM_ATOM_DEF_STEREO_COUNT>
0

> <PUBCHEM_ATOM_UDEF_STEREO_COUNT>
0

> <PUBCHEM_BOND_DEF_STEREO_COUNT>
1

> <PUBCHEM_BOND_UDEF_STEREO_COUNT>
0

> <PUBCHEM_ISOTOPIC_ATOM_COUNT>
0

> <PUBCHEM_COMPONENT_COUNT>
1

> <PUBCHEM_CACTVS_TAUTO_COUNT>
-1

> <PUBCHEM_CONFORMER_ID>
092E7A5500000001

> <PUBCHEM_MMFF94_ENERGY>
71.0292

> <PUBCHEM_FEATURE_SELFOVERLAP>
30.7

> <PUBCHEM_SHAPE_FINGERPRINT>
10165383 225 18191890949725756484
11370993 70 18334569097399655649
11578080 2 18267606731108906046
11582403 64 17058617816839636354
11725454 13 17345449631317103442
12390115 104 18043813298380880508
12422481 6 17821725009663101923
12633257 1 18187635951411802112
12788726 201 17757852386341158775
131258 38 14491910227474470192
13583140 156 17980474560409192165
13965767 371 17823132332975509332
14081887 123 18337390572816359973
14178342 30 18116430328482210061
14289585 56 15409243709356671320
14341114 328 18342452642952510061
14787075 74 18272079543931072773
14840074 17 17530974608742893989
15163728 17 18343588464407418506
15295992 7 18201422715132954384
15324884 4 17025694989871190614
15338160 23 18047745194669030072
15475509 84 16520211320581460187
19734167 9 18334870406524634179
1979834 28 17970364641470694377
20261772 1 17313377933654471468
20626108 58 11386380234999293632
21315764 371 18412833465068379081
21756936 100 18271230734192895760
22149856 69 18263948583309706827
23419403 2 17700448903364233454
238 59 16702310052871995298
244849 19 17988103144086830070
35225 105 17901065854606939634
392239 28 18410571756274798361
427121 178 18337397049874942796
469060 322 16227433269836857806
57527306 92 15592810654437312712
6287921 2 18119257160176819311
633830 44 18130504128519610237
6438718 38 18115306820887923078
6442390 28 18412829087874374710
6823239 73 16882481392576560861
7064713 232 18187087222084093589
7097593 13 17475796451021490781

> <PUBCHEM_SHAPE_MULTIPOLES>
544.29
9.92
3.99
2.08
0.79
3.17
-0.51
-9.36
4.08
1.29
1.12
-0.57
-0.53
0.56

> <PUBCHEM_SHAPE_SELFOVERLAP>
1159.951

> <PUBCHEM_SHAPE_VOLUME>
307.6

> <PUBCHEM_COORDINATE_TYPE>
2
5
10

