154040925
  -OEChem-06302411133D

 45 49  0     0  0  0  0  0  0999 V2000
    5.0713   -1.3199   -0.0937 Cl  0  0  0  0  0  0  0  0  0  0  0  0
    4.0671   -3.6778    1.8829 Cl  0  0  0  0  0  0  0  0  0  0  0  0
   -5.1192   -0.7780    2.2898 S   0  0  0  0  0  0  0  0  0  0  0  0
   -0.7685   -0.8192   -1.6037 O   0  0  0  0  0  0  0  0  0  0  0  0
   -3.9756   -0.3313    0.0381 N   0  0  0  0  0  0  0  0  0  0  0  0
   -2.7509    0.6037    1.6557 N   0  0  0  0  0  0  0  0  0  0  0  0
   -1.6284   -0.2980   -2.5804 N   0  0  0  0  0  0  0  0  0  0  0  0
   -2.1782    0.8148    0.4150 C   0  0  0  0  0  0  0  0  0  0  0  0
   -0.9573    1.5481    0.2318 C   0  0  0  0  0  0  0  0  0  0  0  0
   -2.9218    0.2427   -0.6046 C   0  0  0  0  0  0  0  0  0  0  0  0
   -3.8201   -0.0851    1.3682 C   0  0  0  0  0  0  0  0  0  0  0  0
    1.4213    1.8128    0.6678 C   0  0  0  0  0  0  0  0  0  0  0  0
    0.2194    1.1066    0.8375 C   0  0  0  0  0  0  0  0  0  0  0  0
    1.4298    2.9835   -0.1275 C   0  0  0  0  0  0  0  0  0  0  0  0
   -0.9490    2.6993   -0.5503 C   0  0  0  0  0  0  0  0  0  0  0  0
    0.2361    3.4134   -0.7296 C   0  0  0  0  0  0  0  0  0  0  0  0
   -5.0921   -1.0556   -0.3059 C   0  0  0  0  0  0  0  0  0  0  0  0
   -2.6969    0.2240   -2.0151 C   0  0  0  0  0  0  0  0  0  0  0  0
    2.6150    1.3830    1.2700 C   0  0  0  0  0  0  0  0  0  0  0  0
    2.6317    3.6898   -0.2972 C   0  0  0  0  0  0  0  0  0  0  0  0
   -5.8200   -1.3795    0.7763 C   0  0  0  0  0  0  0  0  0  0  0  0
    3.8001    2.0971    1.0906 C   0  0  0  0  0  0  0  0  0  0  0  0
    3.8085    3.2482    0.3085 C   0  0  0  0  0  0  0  0  0  0  0  0
    0.3638   -1.3683   -2.2608 C   0  0  0  0  0  0  0  0  0  0  0  0
    1.2998   -1.9331   -1.2331 C   0  0  0  0  0  0  0  0  0  0  0  0
    2.6015   -1.4429   -1.1292 C   0  0  0  0  0  0  0  0  0  0  0  0
    0.8673   -2.9493   -0.3811 C   0  0  0  0  0  0  0  0  0  0  0  0
    3.4707   -1.9687   -0.1734 C   0  0  0  0  0  0  0  0  0  0  0  0
    1.7364   -3.4752    0.5748 C   0  0  0  0  0  0  0  0  0  0  0  0
    3.0381   -2.9849    0.6786 C   0  0  0  0  0  0  0  0  0  0  0  0
    0.2078    0.2034    1.4468 H   0  0  0  0  0  0  0  0  0  0  0  0
   -1.8565    3.0644   -1.0257 H   0  0  0  0  0  0  0  0  0  0  0  0
    0.2192    4.3112   -1.3440 H   0  0  0  0  0  0  0  0  0  0  0  0
   -5.3084   -1.3050   -1.3335 H   0  0  0  0  0  0  0  0  0  0  0  0
   -3.4900    0.6060   -2.6782 H   0  0  0  0  0  0  0  0  0  0  0  0
    2.6312    0.4879    1.8883 H   0  0  0  0  0  0  0  0  0  0  0  0
    2.6617    4.5922   -0.9043 H   0  0  0  0  0  0  0  0  0  0  0  0
   -6.7403   -1.9461    0.7624 H   0  0  0  0  0  0  0  0  0  0  0  0
    4.7162    1.7548    1.5630 H   0  0  0  0  0  0  0  0  0  0  0  0
    4.7314    3.8035    0.1694 H   0  0  0  0  0  0  0  0  0  0  0  0
    0.8546   -0.5835   -2.8493 H   0  0  0  0  0  0  0  0  0  0  0  0
    0.0514   -2.1664   -2.9455 H   0  0  0  0  0  0  0  0  0  0  0  0
    2.9361   -0.6492   -1.7936 H   0  0  0  0  0  0  0  0  0  0  0  0
   -0.1442   -3.3403   -0.4536 H   0  0  0  0  0  0  0  0  0  0  0  0
    1.3826   -4.2669    1.2304 H   0  0  0  0  0  0  0  0  0  0  0  0
  1 28  1  0  0  0  0
  2 30  1  0  0  0  0
  3 11  1  0  0  0  0
  3 21  1  0  0  0  0
  4  7  1  0  0  0  0
  4 24  1  0  0  0  0
  5 10  1  0  0  0  0
  5 11  1  0  0  0  0
  5 17  1  0  0  0  0
  6  8  1  0  0  0  0
  6 11  2  0  0  0  0
  7 18  2  0  0  0  0
  8  9  1  0  0  0  0
  8 10  2  0  0  0  0
  9 13  2  0  0  0  0
  9 15  1  0  0  0  0
 10 18  1  0  0  0  0
 12 13  1  0  0  0  0
 12 14  1  0  0  0  0
 12 19  2  0  0  0  0
 13 31  1  0  0  0  0
 14 16  1  0  0  0  0
 14 20  2  0  0  0  0
 15 16  2  0  0  0  0
 15 32  1  0  0  0  0
 16 33  1  0  0  0  0
 17 21  2  0  0  0  0
 17 34  1  0  0  0  0
 18 35  1  0  0  0  0
 19 22  1  0  0  0  0
 19 36  1  0  0  0  0
 20 23  1  0  0  0  0
 20 37  1  0  0  0  0
 21 38  1  0  0  0  0
 22 23  2  0  0  0  0
 22 39  1  0  0  0  0
 23 40  1  0  0  0  0
 24 25  1  0  0  0  0
 24 41  1  0  0  0  0
 24 42  1  0  0  0  0
 25 26  2  0  0  0  0
 25 27  1  0  0  0  0
 26 28  1  0  0  0  0
 26 43  1  0  0  0  0
 27 29  2  0  0  0  0
 27 44  1  0  0  0  0
 28 30  2  0  0  0  0
 29 30  1  0  0  0  0
 29 45  1  0  0  0  0
M  END
> <PUBCHEM_COMPOUND_CID>
154040925

> <PUBCHEM_CONFORMER_RMSD>
1

> <PUBCHEM_CONFORMER_DIVERSEORDER>
1
158
43
14
131
119
98
77
88
147
42
159
101
46
20
144
78
205
62
95
25
163
33
204
67
19
180
49
47
22
56
32
16
112
199
175
48
86
192
203
194
102
193
4
138
13
195
165
162
184
55
110
154
189
10
200
61
76
18
63
84
114
170
109
21
152
36
7
173
181
201
125
51
24
29
111
124
108
132
183
15
5
130
107
105
64
80
44
11
127
143
196
3
50
166
188
83
59
153
81
146
122
172
58
128
134
12
37
8
6
60
145
104
191
139
57
96
89
70
75
171
106
136
133
27
94
40
38
2
156
157
74
9
198
178
148
169
197
35
39
177
69
149
113
155
23
185
129
142
135
54
151
45
68
26
93
53
99
28
150
100
17
92
97
116
73
71
30
103
179
85
65
90
182
137
82
117
186
174
141
187
121
140
164
126
115
34
176
41
52
91
202
120
161
79
190
72
123
160
66
168
167
87
118
31

> <PUBCHEM_MMFF94_PARTIAL_CHARGES>
41
1 -0.18
10 -0.24
11 0.24
13 -0.15
15 -0.15
16 -0.15
17 -0.18
18 0.47
19 -0.15
2 -0.18
20 -0.15
21 -0.05
22 -0.15
23 -0.15
24 0.42
25 -0.14
26 -0.15
27 -0.15
28 0.18
29 -0.15
3 -0.16
30 0.18
31 0.15
32 0.15
33 0.15
34 0.15
35 0.06
36 0.15
37 0.15
38 0.15
39 0.15
4 -0.22
40 0.15
43 0.15
44 0.15
45 0.15
5 0.33
6 -0.57
7 -0.51
8 0.17
9 0.05

> <PUBCHEM_EFFECTIVE_ROTOR_COUNT>
5

> <PUBCHEM_PHARMACOPHORE_FEATURES>
7
1 7 acceptor
3 5 6 11 cation
5 3 5 11 17 21 rings
5 5 6 8 10 11 rings
6 12 14 19 20 22 23 rings
6 25 26 27 28 29 30 rings
6 9 12 13 14 15 16 rings

> <PUBCHEM_HEAVY_ATOM_COUNT>
30

> <PUBCHEM_ATOM_DEF_STEREO_COUNT>
0

> <PUBCHEM_ATOM_UDEF_STEREO_COUNT>
0

> <PUBCHEM_BOND_DEF_STEREO_COUNT>
1

> <PUBCHEM_BOND_UDEF_STEREO_COUNT>
0

> <PUBCHEM_ISOTOPIC_ATOM_COUNT>
0

> <PUBCHEM_COMPONENT_COUNT>
1

> <PUBCHEM_CACTVS_TAUTO_COUNT>
-1

> <PUBCHEM_CONFORMER_ID>
092E7A5D00000001

> <PUBCHEM_MMFF94_ENERGY>
84.9022

> <PUBCHEM_FEATURE_SELFOVERLAP>
35.802

> <PUBCHEM_SHAPE_FINGERPRINT>
10032420 55 18115601331322076454
10382601 240 18272093837181190332
107951 10 17835259104769957764
10838868 217 17550412652100560969
11135609 187 17765690796409552333
11578080 2 18114462271736049781
11963148 33 17908697681693177431
12047536 79 18126876883690516841
12156800 1 11308169649712462518
12422481 6 17988359252348087858
12592029 89 18268716189406562141
12633257 1 18272661121353173347
133893 2 18271224093508292229
13583140 156 18336540504647634039
1361 2 18264771149885373929
14020679 6 18048050575380619065
14787075 74 18263944175866717070
14840074 17 18201716254382642324
14955137 171 17702961227172140750
15475509 35 17754212870584947395
15927050 60 18124881419671745878
16120349 306 17983836042411993912
17138139 8 17125903693526497175
19301679 30 18337402612638670937
19319366 153 18127690654516267072
19930381 70 18408038502885242843
20101258 96 18194964028442311822
20691752 17 18339640169591781268
20739085 24 18271813435893588644
20771845 171 17896889948099573549
21421861 104 17985857911251636713
21796203 349 18410579505055437336
22223350 30 17678482907489013627
22956985 138 18334012800298296434
23419403 2 18187075123155706335
23559900 14 17675926469765182399
244849 19 18040983034985614309
3411729 13 18058746796225464177
35225 105 16835186277500972931
392239 28 18411418427304332594
4058900 60 18048338892040070605
469060 322 17840271490128068527
5309563 4 18409731729406793576
56638632 33 18270951427990079915
57527358 35 15436852296207341397
6287921 2 17346322557254650894
6669772 16 18264492969876670080

> <PUBCHEM_SHAPE_MULTIPOLES>
604.16
9.96
4.99
1.97
8.89
0.93
0.45
-5.24
-4.59
-7.59
-0.77
1.2
-0.84
0.19

> <PUBCHEM_SHAPE_SELFOVERLAP>
1321.496

> <PUBCHEM_SHAPE_VOLUME>
331.6

> <PUBCHEM_COORDINATE_TYPE>
2
5
10

