154040928
  -OEChem-06302411133D

 35 37  0     0  0  0  0  0  0999 V2000
    4.0571   -2.1494    0.5971 Cl  0  0  0  0  0  0  0  0  0  0  0  0
    5.3645   -0.4533   -1.8297 Cl  0  0  0  0  0  0  0  0  0  0  0  0
   -1.5324   -3.2546   -0.7256 S   0  0  0  0  0  0  0  0  0  0  0  0
   -0.3647    1.2148    1.0421 O   0  0  0  0  0  0  0  0  0  0  0  0
   -1.9542   -1.0275    0.4745 N   0  0  0  0  0  0  0  0  0  0  0  0
   -3.0919   -1.0260   -1.4482 N   0  0  0  0  0  0  0  0  0  0  0  0
   -1.3923    1.7821    1.8067 N   0  0  0  0  0  0  0  0  0  0  0  0
   -2.5865    0.1772    0.4400 C   0  0  0  0  0  0  0  0  0  0  0  0
   -3.2838    0.1562   -0.7571 C   0  0  0  0  0  0  0  0  0  0  0  0
   -4.1509    1.2041   -1.3230 C   0  0  0  0  0  0  0  0  0  0  0  0
   -2.2899   -1.6927   -0.6652 C   0  0  0  0  0  0  0  0  0  0  0  0
   -1.1097   -1.6980    1.3271 C   0  0  0  0  0  0  0  0  0  0  0  0
   -2.5102    1.2261    1.4700 C   0  0  0  0  0  0  0  0  0  0  0  0
   -3.3623    2.3652   -1.9412 C   0  0  0  0  0  0  0  0  0  0  0  0
   -0.7816   -2.9078    0.8426 C   0  0  0  0  0  0  0  0  0  0  0  0
    1.9762    1.2518    0.6244 C   0  0  0  0  0  0  0  0  0  0  0  0
    0.8582    1.8341    1.4216 C   0  0  0  0  0  0  0  0  0  0  0  0
    2.4581   -0.0224    0.9239 C   0  0  0  0  0  0  0  0  0  0  0  0
    2.5399    1.9825   -0.4215 C   0  0  0  0  0  0  0  0  0  0  0  0
    3.5036   -0.5659    0.1776 C   0  0  0  0  0  0  0  0  0  0  0  0
    3.5853    1.4390   -1.1679 C   0  0  0  0  0  0  0  0  0  0  0  0
    4.0673    0.1648   -0.8683 C   0  0  0  0  0  0  0  0  0  0  0  0
   -4.8156    1.5974   -0.5448 H   0  0  0  0  0  0  0  0  0  0  0  0
   -4.7992    0.7705   -2.0939 H   0  0  0  0  0  0  0  0  0  0  0  0
   -0.7843   -1.2659    2.2611 H   0  0  0  0  0  0  0  0  0  0  0  0
   -3.4546    1.5865    1.9084 H   0  0  0  0  0  0  0  0  0  0  0  0
   -2.7059    2.0090   -2.7423 H   0  0  0  0  0  0  0  0  0  0  0  0
   -4.0492    3.1054   -2.3631 H   0  0  0  0  0  0  0  0  0  0  0  0
   -2.7396    2.8648   -1.1917 H   0  0  0  0  0  0  0  0  0  0  0  0
   -0.1325   -3.6203    1.3317 H   0  0  0  0  0  0  0  0  0  0  0  0
    1.0410    1.6713    2.4915 H   0  0  0  0  0  0  0  0  0  0  0  0
    0.7848    2.9168    1.2598 H   0  0  0  0  0  0  0  0  0  0  0  0
    2.0151   -0.5871    1.7414 H   0  0  0  0  0  0  0  0  0  0  0  0
    2.1732    2.9755   -0.6675 H   0  0  0  0  0  0  0  0  0  0  0  0
    4.0124    2.0223   -1.9798 H   0  0  0  0  0  0  0  0  0  0  0  0
  1 20  1  0  0  0  0
  2 22  1  0  0  0  0
  3 11  1  0  0  0  0
  3 15  1  0  0  0  0
  4  7  1  0  0  0  0
  4 17  1  0  0  0  0
  5  8  1  0  0  0  0
  5 11  1  0  0  0  0
  5 12  1  0  0  0  0
  6  9  1  0  0  0  0
  6 11  2  0  0  0  0
  7 13  2  0  0  0  0
  8  9  2  0  0  0  0
  8 13  1  0  0  0  0
  9 10  1  0  0  0  0
 10 14  1  0  0  0  0
 10 23  1  0  0  0  0
 10 24  1  0  0  0  0
 12 15  2  0  0  0  0
 12 25  1  0  0  0  0
 13 26  1  0  0  0  0
 14 27  1  0  0  0  0
 14 28  1  0  0  0  0
 14 29  1  0  0  0  0
 15 30  1  0  0  0  0
 16 17  1  0  0  0  0
 16 18  2  0  0  0  0
 16 19  1  0  0  0  0
 17 31  1  0  0  0  0
 17 32  1  0  0  0  0
 18 20  1  0  0  0  0
 18 33  1  0  0  0  0
 19 21  2  0  0  0  0
 19 34  1  0  0  0  0
 20 22  2  0  0  0  0
 21 22  1  0  0  0  0
 21 35  1  0  0  0  0
M  END
> <PUBCHEM_COMPOUND_CID>
154040928

> <PUBCHEM_CONFORMER_RMSD>
0.8

> <PUBCHEM_CONFORMER_DIVERSEORDER>
1
145
119
114
32
100
54
18
133
78
49
43
131
106
137
113
6
103
71
70
85
127
99
95
134
143
90
4
67
135
140
52
98
26
116
63
102
109
14
91
86
9
66
147
101
76
139
44
121
118
2
130
81
97
148
69
23
104
65
48
39
83
45
11
111
79
142
120
94
20
7
74
59
8
17
107
115
68
15
112
141
25
117
30
21
53
125
92
64
55
105
126
146
136
61
3
42
57
36
88
51
110
62
138
5
129
123
35
75
41
40
47
80
89
19
93
27
50
132
22
96
58
31
46
73
87
12
144
72
77
37
13
60
28
29
122
56
33
124
10
34
82
24
16
128
38
108
84

> <PUBCHEM_MMFF94_PARTIAL_CHARGES>
27
1 -0.18
10 0.18
11 0.24
12 -0.18
13 0.47
15 -0.05
16 -0.14
17 0.42
18 -0.15
19 -0.15
2 -0.18
20 0.18
21 -0.15
22 0.18
25 0.15
26 0.06
3 -0.16
30 0.15
33 0.15
34 0.15
35 0.15
4 -0.22
5 0.33
6 -0.57
7 -0.51
8 -0.24
9 0.05

> <PUBCHEM_EFFECTIVE_ROTOR_COUNT>
5

> <PUBCHEM_PHARMACOPHORE_FEATURES>
6
1 14 hydrophobe
1 7 acceptor
3 5 6 11 cation
5 3 5 11 12 15 rings
5 5 6 8 9 11 rings
6 16 18 19 20 21 22 rings

> <PUBCHEM_HEAVY_ATOM_COUNT>
22

> <PUBCHEM_ATOM_DEF_STEREO_COUNT>
0

> <PUBCHEM_ATOM_UDEF_STEREO_COUNT>
0

> <PUBCHEM_BOND_DEF_STEREO_COUNT>
1

> <PUBCHEM_BOND_UDEF_STEREO_COUNT>
0

> <PUBCHEM_ISOTOPIC_ATOM_COUNT>
0

> <PUBCHEM_COMPONENT_COUNT>
1

> <PUBCHEM_CACTVS_TAUTO_COUNT>
-1

> <PUBCHEM_CONFORMER_ID>
092E7A6000000001

> <PUBCHEM_MMFF94_ENERGY>
50.0573

> <PUBCHEM_FEATURE_SELFOVERLAP>
30.699

> <PUBCHEM_SHAPE_FINGERPRINT>
10369192 42 15214459749030008782
10764073 3 18046661995416410867
11582403 64 15614882118289759001
12035759 4 17984405366212653857
12104220 4 15287901421384135612
12173636 292 17530959237270900667
12363563 72 17203330039291465736
12553582 1 18272379650459836184
12592029 89 18042115476006316121
12788726 201 17988657250217370224
13103583 49 11742470240430700204
14713325 29 18041847208233901681
14931854 50 18413106152051658766
15163728 17 17751361673319093629
15324884 4 16105547162054147513
15342168 16 12901809624146273551
15475509 35 13179043969741026789
15664445 248 17107326405314253207
16752209 62 18271801259798487273
18186145 218 18411415133132644097
18981168 100 12757964919930536080
192875 21 18201147767973822330
19862831 5 18410008849228624280
21069387 34 17132109173544058153
21315764 21 17750499694562028582
21634736 98 18339933722411861264
21781051 124 18335415799390747251
22907989 373 18191312774065687685
23559900 14 18129925884783857832
23728640 28 17845673476849259075
3027735 51 16988290759424117095
3411729 13 17194079633783365585
49207404 50 7997698639593555320
5161694 15 18341893025798362220
633830 44 16081370765438521100
90316 7 11095621042723648363
9709674 26 17988079018907219112

> <PUBCHEM_SHAPE_MULTIPOLES>
439.53
9.12
3.28
1.85
7.36
1.84
0.14
-1.06
5.17
-1.45
0.11
-0.45
-0.68
0.07

> <PUBCHEM_SHAPE_SELFOVERLAP>
915.171

> <PUBCHEM_SHAPE_VOLUME>
254.2

> <PUBCHEM_COORDINATE_TYPE>
2
5
10

