154040918
  -OEChem-06302411133D

 39 42  0     0  0  0  0  0  0999 V2000
   -5.1857   -0.2808   -0.6568 Cl  0  0  0  0  0  0  0  0  0  0  0  0
   -4.9876    2.7326   -1.8201 Cl  0  0  0  0  0  0  0  0  0  0  0  0
    4.5876    1.6582   -2.0992 S   0  0  0  0  0  0  0  0  0  0  0  0
   -2.1627   -4.3696   -0.2727 F   0  0  0  0  0  0  0  0  0  0  0  0
    0.2204    0.4872    1.5848 O   0  0  0  0  0  0  0  0  0  0  0  0
    3.4992    0.7762    0.0490 N   0  0  0  0  0  0  0  0  0  0  0  0
    2.5177   -0.2064   -1.7009 N   0  0  0  0  0  0  0  0  0  0  0  0
    1.1377    0.0415    2.5465 N   0  0  0  0  0  0  0  0  0  0  0  0
    2.5617   -0.0501    0.5887 C   0  0  0  0  0  0  0  0  0  0  0  0
    1.9673   -0.6470   -0.5114 C   0  0  0  0  0  0  0  0  0  0  0  0
    3.4261    0.6408   -1.3039 C   0  0  0  0  0  0  0  0  0  0  0  0
    0.9021   -1.6084   -0.4512 C   0  0  0  0  0  0  0  0  0  0  0  0
    4.4457    1.6613    0.5075 C   0  0  0  0  0  0  0  0  0  0  0  0
    2.3004   -0.2135    1.9836 C   0  0  0  0  0  0  0  0  0  0  0  0
    5.1223    2.2260   -0.5070 C   0  0  0  0  0  0  0  0  0  0  0  0
    1.0891   -2.8154    0.2223 C   0  0  0  0  0  0  0  0  0  0  0  0
   -0.3201   -1.3343   -1.0648 C   0  0  0  0  0  0  0  0  0  0  0  0
    0.0539   -3.7484    0.2822 C   0  0  0  0  0  0  0  0  0  0  0  0
   -1.3553   -2.2672   -1.0050 C   0  0  0  0  0  0  0  0  0  0  0  0
   -2.0114    1.2269    1.2270 C   0  0  0  0  0  0  0  0  0  0  0  0
   -1.0124    0.7476    2.2387 C   0  0  0  0  0  0  0  0  0  0  0  0
   -1.1684   -3.4743   -0.3315 C   0  0  0  0  0  0  0  0  0  0  0  0
   -3.0248    0.3750    0.7878 C   0  0  0  0  0  0  0  0  0  0  0  0
   -1.9265    2.5259    0.7260 C   0  0  0  0  0  0  0  0  0  0  0  0
   -3.9532    0.8220   -0.1523 C   0  0  0  0  0  0  0  0  0  0  0  0
   -2.8549    2.9730   -0.2140 C   0  0  0  0  0  0  0  0  0  0  0  0
   -3.8682    2.1211   -0.6532 C   0  0  0  0  0  0  0  0  0  0  0  0
    4.5851    1.8421    1.5624 H   0  0  0  0  0  0  0  0  0  0  0  0
    3.1340   -0.5046    2.6432 H   0  0  0  0  0  0  0  0  0  0  0  0
    5.9147    2.9532   -0.4001 H   0  0  0  0  0  0  0  0  0  0  0  0
    2.0359   -3.0519    0.7021 H   0  0  0  0  0  0  0  0  0  0  0  0
   -0.4835   -0.3976   -1.5926 H   0  0  0  0  0  0  0  0  0  0  0  0
    0.1994   -4.6887    0.8056 H   0  0  0  0  0  0  0  0  0  0  0  0
   -2.3064   -2.0553   -1.4842 H   0  0  0  0  0  0  0  0  0  0  0  0
   -0.8729    1.5133    3.0122 H   0  0  0  0  0  0  0  0  0  0  0  0
   -1.3668   -0.1657    2.7325 H   0  0  0  0  0  0  0  0  0  0  0  0
   -3.0895   -0.6366    1.1824 H   0  0  0  0  0  0  0  0  0  0  0  0
   -1.1402    3.1975    1.0606 H   0  0  0  0  0  0  0  0  0  0  0  0
   -2.7734    3.9882   -0.5940 H   0  0  0  0  0  0  0  0  0  0  0  0
  1 25  1  0  0  0  0
  2 27  1  0  0  0  0
  3 11  1  0  0  0  0
  3 15  1  0  0  0  0
  4 22  1  0  0  0  0
  5  8  1  0  0  0  0
  5 21  1  0  0  0  0
  6  9  1  0  0  0  0
  6 11  1  0  0  0  0
  6 13  1  0  0  0  0
  7 10  1  0  0  0  0
  7 11  2  0  0  0  0
  8 14  2  0  0  0  0
  9 10  2  0  0  0  0
  9 14  1  0  0  0  0
 10 12  1  0  0  0  0
 12 16  2  0  0  0  0
 12 17  1  0  0  0  0
 13 15  2  0  0  0  0
 13 28  1  0  0  0  0
 14 29  1  0  0  0  0
 15 30  1  0  0  0  0
 16 18  1  0  0  0  0
 16 31  1  0  0  0  0
 17 19  2  0  0  0  0
 17 32  1  0  0  0  0
 18 22  2  0  0  0  0
 18 33  1  0  0  0  0
 19 22  1  0  0  0  0
 19 34  1  0  0  0  0
 20 21  1  0  0  0  0
 20 23  2  0  0  0  0
 20 24  1  0  0  0  0
 21 35  1  0  0  0  0
 21 36  1  0  0  0  0
 23 25  1  0  0  0  0
 23 37  1  0  0  0  0
 24 26  2  0  0  0  0
 24 38  1  0  0  0  0
 25 27  2  0  0  0  0
 26 27  1  0  0  0  0
 26 39  1  0  0  0  0
M  END
> <PUBCHEM_COMPOUND_CID>
154040918

> <PUBCHEM_CONFORMER_RMSD>
0.8

> <PUBCHEM_CONFORMER_DIVERSEORDER>
1
157
66
128
109
113
153
154
122
50
45
104
149
46
174
142
100
127
126
48
11
171
177
162
77
130
169
148
20
8
36
25
33
14
24
103
121
43
29
21
6
118
125
134
116
131
40
17
13
150
57
92
167
85
30
95
5
102
3
143
123
56
137
175
135
145
176
63
147
107
35
4
42
15
31
87
84
165
164
10
90
2
139
83
172
39
82
112
51
61
96
115
173
156
97
67
27
41
152
75
16
69
163
71
18
141
101
166
49
86
89
70
161
73
76
72
80
91
7
117
64
88
140
99
60
168
138
133
62
68
22
9
28
65
114
144
151
34
79
47
170
106
160
59
124
158
23
120
74
38
19
53
159
12
44
94
26
52
111
93
54
55
110
78
108
105
37
132
119
129
136
155
81
98
58
146
32

> <PUBCHEM_MMFF94_PARTIAL_CHARGES>
37
1 -0.18
10 0.17
11 0.24
12 0.05
13 -0.18
14 0.47
15 -0.05
16 -0.15
17 -0.15
18 -0.15
19 -0.15
2 -0.18
20 -0.14
21 0.42
22 0.19
23 -0.15
24 -0.15
25 0.18
26 -0.15
27 0.18
28 0.15
29 0.06
3 -0.16
30 0.15
31 0.15
32 0.15
33 0.15
34 0.15
37 0.15
38 0.15
39 0.15
4 -0.19
5 -0.22
6 0.33
7 -0.57
8 -0.51
9 -0.24

> <PUBCHEM_EFFECTIVE_ROTOR_COUNT>
5

> <PUBCHEM_PHARMACOPHORE_FEATURES>
6
1 8 acceptor
3 6 7 11 cation
5 3 6 11 13 15 rings
5 6 7 9 10 11 rings
6 12 16 17 18 19 22 rings
6 20 23 24 25 26 27 rings

> <PUBCHEM_HEAVY_ATOM_COUNT>
27

> <PUBCHEM_ATOM_DEF_STEREO_COUNT>
0

> <PUBCHEM_ATOM_UDEF_STEREO_COUNT>
0

> <PUBCHEM_BOND_DEF_STEREO_COUNT>
1

> <PUBCHEM_BOND_UDEF_STEREO_COUNT>
0

> <PUBCHEM_ISOTOPIC_ATOM_COUNT>
0

> <PUBCHEM_COMPONENT_COUNT>
1

> <PUBCHEM_CACTVS_TAUTO_COUNT>
-1

> <PUBCHEM_CONFORMER_ID>
092E7A5600000001

> <PUBCHEM_MMFF94_ENERGY>
70.9568

> <PUBCHEM_FEATURE_SELFOVERLAP>
30.7

> <PUBCHEM_SHAPE_FINGERPRINT>
10498660 4 18341894065344322517
10759866 29 18408318882555856170
10816530 23 17898546732119478605
10928967 22 14189284907648128349
11285246 1 16841107877924739294
11370993 70 18338796710960406661
11421498 54 17825663623607735426
11578080 2 13854999219461377230
11582403 64 17822284661018589745
11640471 11 18040150742873908338
12788726 201 18118960536312781762
13134695 92 17468488010106185034
13149001 5 17774720982302699544
13402501 40 17773597302967697339
13583140 156 18115887320436100960
13617811 41 18267284471313728477
13726171 33 18409454687253791793
13947920 24 18270406125497958856
13965767 371 17967802813325894868
13994607 96 17462033112505113084
14114211 68 18199485298214166967
14114211 80 18130520673614686723
14468879 13 18115318765366066305
14787075 74 18059570321802302135
15163728 17 18262533480525102869
15324115 91 18053650396637841349
15463212 79 18334574698068587130
15475509 35 11597709742214595717
15848702 105 18342741818668081594
16114785 44 15470771396652785546
17357779 13 17343788359088613510
17492 54 18343299293091945599
21304303 282 18116702101259388594
21452121 99 18272078431334005426
21641784 216 17761513768904587348
21860390 5 17313951784002800932
23227448 37 18197221562328052796
23419403 2 10941733309168795274
23559900 14 17905598913947691259
238 59 18125169233787751931
3052486 1 18267851955712792923
4409770 3 17774166845954426550
469060 322 17976283522510268371
513532 50 15954661614792279685
58260988 393 17531821263303981641
7808743 9 18338233876786408118

> <PUBCHEM_SHAPE_MULTIPOLES>
535.15
9.65
4.42
1.98
0.52
4.32
0.62
-9.99
-4.42
2.37
-1.19
-0.71
-0.75
-0.37

> <PUBCHEM_SHAPE_SELFOVERLAP>
1151.456

> <PUBCHEM_SHAPE_VOLUME>
302.7

> <PUBCHEM_COORDINATE_TYPE>
2
5
10

