155269227
  -OEChem-06302411133D

 45 49  0     0  0  0  0  0  0999 V2000
    3.8183   -4.3793    1.2517 Cl  0  0  0  0  0  0  0  0  0  0  0  0
    5.1583   -1.6036    2.2392 Cl  0  0  0  0  0  0  0  0  0  0  0  0
   -6.0732   -0.4169    1.4316 S   0  0  0  0  0  0  0  0  0  0  0  0
    0.0919   -2.1749   -1.9928 O   0  0  0  0  0  0  0  0  0  0  0  0
   -3.9236   -1.1088    0.2157 N   0  0  0  0  0  0  0  0  0  0  0  0
   -3.7420    1.0351    0.8170 N   0  0  0  0  0  0  0  0  0  0  0  0
   -0.5862   -1.1340   -1.3436 N   0  0  0  0  0  0  0  0  0  0  0  0
   -2.6060    0.6077    0.1546 C   0  0  0  0  0  0  0  0  0  0  0  0
   -1.4799    1.4621   -0.0978 C   0  0  0  0  0  0  0  0  0  0  0  0
   -2.6966   -0.7209   -0.2281 C   0  0  0  0  0  0  0  0  0  0  0  0
   -4.4925   -0.0313    0.8234 C   0  0  0  0  0  0  0  0  0  0  0  0
    0.6662    2.3720    0.5981 C   0  0  0  0  0  0  0  0  0  0  0  0
   -0.4418    1.5409    0.8308 C   0  0  0  0  0  0  0  0  0  0  0  0
    0.7219    3.1338   -0.5932 C   0  0  0  0  0  0  0  0  0  0  0  0
   -1.4252    2.2113   -1.2695 C   0  0  0  0  0  0  0  0  0  0  0  0
   -0.3321    3.0421   -1.5169 C   0  0  0  0  0  0  0  0  0  0  0  0
   -4.6843   -2.2537    0.2016 C   0  0  0  0  0  0  0  0  0  0  0  0
   -1.7647   -1.5478   -0.9268 C   0  0  0  0  0  0  0  0  0  0  0  0
    1.7201    2.4637    1.5219 C   0  0  0  0  0  0  0  0  0  0  0  0
    1.8299    3.9648   -0.8259 C   0  0  0  0  0  0  0  0  0  0  0  0
   -5.8678   -2.0644    0.8096 C   0  0  0  0  0  0  0  0  0  0  0  0
    2.8132    3.2945    1.2745 C   0  0  0  0  0  0  0  0  0  0  0  0
    2.8680    4.0436    0.1028 C   0  0  0  0  0  0  0  0  0  0  0  0
    1.3517   -1.6806   -2.4216 C   0  0  0  0  0  0  0  0  0  0  0  0
    2.2987   -1.6788   -1.2578 C   0  0  0  0  0  0  0  0  0  0  0  0
    2.6018   -2.8719   -0.6018 C   0  0  0  0  0  0  0  0  0  0  0  0
    2.8764   -0.4827   -0.8320 C   0  0  0  0  0  0  0  0  0  0  0  0
    3.4824   -2.8690    0.4799 C   0  0  0  0  0  0  0  0  0  0  0  0
    3.7571   -0.4798    0.2497 C   0  0  0  0  0  0  0  0  0  0  0  0
    4.0601   -1.6729    0.9056 C   0  0  0  0  0  0  0  0  0  0  0  0
   -0.4901    0.9515    1.7458 H   0  0  0  0  0  0  0  0  0  0  0  0
   -2.2263    2.1607   -2.0033 H   0  0  0  0  0  0  0  0  0  0  0  0
   -0.3100    3.6184   -2.4395 H   0  0  0  0  0  0  0  0  0  0  0  0
   -4.3290   -3.1651   -0.2541 H   0  0  0  0  0  0  0  0  0  0  0  0
   -2.0582   -2.5945   -1.1246 H   0  0  0  0  0  0  0  0  0  0  0  0
    1.6994    1.8859    2.4436 H   0  0  0  0  0  0  0  0  0  0  0  0
    1.8939    4.5590   -1.7351 H   0  0  0  0  0  0  0  0  0  0  0  0
   -6.6367   -2.8151    0.9254 H   0  0  0  0  0  0  0  0  0  0  0  0
    3.6224    3.3549    1.9964 H   0  0  0  0  0  0  0  0  0  0  0  0
    3.7197    4.6896   -0.0895 H   0  0  0  0  0  0  0  0  0  0  0  0
    1.2422   -0.6886   -2.8780 H   0  0  0  0  0  0  0  0  0  0  0  0
    1.7352   -2.3492   -3.2004 H   0  0  0  0  0  0  0  0  0  0  0  0
    2.1504   -3.8024   -0.9395 H   0  0  0  0  0  0  0  0  0  0  0  0
    2.6519    0.4531   -1.3363 H   0  0  0  0  0  0  0  0  0  0  0  0
    4.2027    0.4599    0.5656 H   0  0  0  0  0  0  0  0  0  0  0  0
  1 28  1  0  0  0  0
  2 30  1  0  0  0  0
  3 11  1  0  0  0  0
  3 21  1  0  0  0  0
  4  7  1  0  0  0  0
  4 24  1  0  0  0  0
  5 10  1  0  0  0  0
  5 11  1  0  0  0  0
  5 17  1  0  0  0  0
  6  8  1  0  0  0  0
  6 11  2  0  0  0  0
  7 18  2  3  0  0  0
  8  9  1  0  0  0  0
  8 10  2  0  0  0  0
  9 13  2  0  0  0  0
  9 15  1  0  0  0  0
 10 18  1  0  0  0  0
 12 13  1  0  0  0  0
 12 14  1  0  0  0  0
 12 19  2  0  0  0  0
 13 31  1  0  0  0  0
 14 16  1  0  0  0  0
 14 20  2  0  0  0  0
 15 16  2  0  0  0  0
 15 32  1  0  0  0  0
 16 33  1  0  0  0  0
 17 21  2  0  0  0  0
 17 34  1  0  0  0  0
 18 35  1  0  0  0  0
 19 22  1  0  0  0  0
 19 36  1  0  0  0  0
 20 23  1  0  0  0  0
 20 37  1  0  0  0  0
 21 38  1  0  0  0  0
 22 23  2  0  0  0  0
 22 39  1  0  0  0  0
 23 40  1  0  0  0  0
 24 25  1  0  0  0  0
 24 41  1  0  0  0  0
 24 42  1  0  0  0  0
 25 26  2  0  0  0  0
 25 27  1  0  0  0  0
 26 28  1  0  0  0  0
 26 43  1  0  0  0  0
 27 29  2  0  0  0  0
 27 44  1  0  0  0  0
 28 30  2  0  0  0  0
 29 30  1  0  0  0  0
 29 45  1  0  0  0  0
M  END
> <PUBCHEM_COMPOUND_CID>
155269227

> <PUBCHEM_CONFORMER_RMSD>
0.8

> <PUBCHEM_CONFORMER_DIVERSEORDER>
1
135
257
398
312
395
16
366
423
372
96
159
99
125
370
412
60
106
88
421
428
53
176
406
348
104
129
197
349
346
422
351
25
117
172
121
283
419
379
28
347
435
73
26
371
49
116
109
304
429
373
66
213
297
298
115
94
51
58
78
57
45
313
86
107
50
179
48
442
186
70
321
353
12
303
174
277
190
339
276
306
3
281
67
101
31
396
41
244
358
279
2
275
327
208
8
294
258
140
287
402
193
382
29
268
54
260
359
231
289
160
355
23
134
361
79
437
64
19
226
133
397
209
55
175
369
322
128
363
439
42
317
124
122
39
132
324
390
83
333
237
147
341
215
328
13
335
154
222
407
44
181
345
336
220
32
405
198
111
43
291
24
9
37
350
105
4
265
123
5
112
155
338
362
311
62
216
296
342
71
21
30
22
212
295
92
245
17
356
7
315
192
119
65
20
262
38
285
272
392
340
411
52
145
168
118
391
203
207
89
323
72
385
33
108
6
368
143
218
269
211
261
47
418
248
334
309
232
376
120
415
433
280
329
196
314
318
90
202
425
126
337
177
290
84
225
360
377
217
300
282
95
253
149
200
343
256
325
254
274
152
18
243
180
288
330
251
14
241
151
394
69
114
56
227
127
210
199
93
228
178
85
367
436
35
278
40
68
219
91
63
383
305
364
286
426
307
410
255
191
319
10
153
434
316
416
15
259
46
332
432
427
354
161
238
221
163
250
326
236
266
374
378
308
267
408
11
164
344
273
185
430
189
146
98
399
61
158
162
440
393
131
139
223
252
214
271
246
292
34
441
270
141
438
403
234
201
150
420
188
431
167
302
380
249
81
142
240
110
235
320
103
375
138
401
157
301
148
183
76
409
414
100
184
242
365
404
80
206
156
137
263
136
424
77
384
187
27
204
205
417
82
389
247
169
413
400
182
102
195
310
130
229
284
170
75
74
357
87
224
233
173
352
166
239
194
59
331
387
299
293
97
381
230
264
113
144
36
386
165
388
171

> <PUBCHEM_MMFF94_PARTIAL_CHARGES>
41
1 -0.18
10 -0.24
11 0.24
13 -0.15
15 -0.15
16 -0.15
17 -0.18
18 0.47
19 -0.15
2 -0.18
20 -0.15
21 -0.05
22 -0.15
23 -0.15
24 0.42
25 -0.14
26 -0.15
27 -0.15
28 0.18
29 -0.15
3 -0.16
30 0.18
31 0.15
32 0.15
33 0.15
34 0.15
35 0.06
36 0.15
37 0.15
38 0.15
39 0.15
4 -0.22
40 0.15
43 0.15
44 0.15
45 0.15
5 0.33
6 -0.57
7 -0.51
8 0.17
9 0.05

> <PUBCHEM_EFFECTIVE_ROTOR_COUNT>
5

> <PUBCHEM_PHARMACOPHORE_FEATURES>
7
1 7 acceptor
3 5 6 11 cation
5 3 5 11 17 21 rings
5 5 6 8 10 11 rings
6 12 14 19 20 22 23 rings
6 25 26 27 28 29 30 rings
6 9 12 13 14 15 16 rings

> <PUBCHEM_HEAVY_ATOM_COUNT>
30

> <PUBCHEM_ATOM_DEF_STEREO_COUNT>
0

> <PUBCHEM_ATOM_UDEF_STEREO_COUNT>
0

> <PUBCHEM_BOND_DEF_STEREO_COUNT>
0

> <PUBCHEM_BOND_UDEF_STEREO_COUNT>
1

> <PUBCHEM_ISOTOPIC_ATOM_COUNT>
0

> <PUBCHEM_COMPONENT_COUNT>
1

> <PUBCHEM_CACTVS_TAUTO_COUNT>
-1

> <PUBCHEM_CONFORMER_ID>
0941386B00000001

> <PUBCHEM_MMFF94_ENERGY>
78.2005

> <PUBCHEM_FEATURE_SELFOVERLAP>
35.802

> <PUBCHEM_SHAPE_FINGERPRINT>
10032420 55 18114187423798787924
107951 10 17545059541910675132
11578080 2 17894338987124333589
11963148 33 17619630628727203671
12035758 1 18121787128080209449
12107183 9 18268724814086255609
12156800 1 13754468706843664882
12202916 173 17404548131985403204
12422481 6 18269817839690662328
12655387 17 17751614595770035921
12717326 69 17537453086469087875
12788726 201 17902533496714709622
13140716 1 18126000713786738918
133893 2 18198883963879383247
13583140 156 18335405842828471247
14004853 49 17978495761586346744
14863182 85 18047759474744186372
15324884 4 17700690666898907644
15420108 30 17773033283261250543
15475509 35 17679332851552100515
15927050 60 17839188746252764454
16120349 306 17839172257883948864
1813 80 18335433335187899917
19319366 153 17980479288920187008
1979834 28 17632304432264950623
20764821 26 17901391408933710506
20775530 9 18338518521702333790
21033648 29 16844167836286883691
21133410 52 18124014983656915182
21304303 282 17103377599413384197
21421861 104 18199771248351848433
22956985 138 18335700580611405170
23366157 5 18263096568423464373
23419403 2 18334846208895498197
3187 122 18195526991359931764
3380486 145 17914020176415413316
3411729 13 18198916988020194985
3421961 26 18409451414034472545
3493558 16 17486787285522721809
4409770 3 17684928003752493685
508706 21 17190663373756444846
5265222 85 17621331559786977092
57091435 65 18339640152607018884
57527585 103 17549830979898431028
6823239 73 17773622467043617006

> <PUBCHEM_SHAPE_MULTIPOLES>
604.16
10.75
5.76
1.84
11.76
2.8
0.32
-10.06
-6.75
-6.83
-0.2
-1.08
-0.51
-0.05

> <PUBCHEM_SHAPE_SELFOVERLAP>
1319.033

> <PUBCHEM_SHAPE_VOLUME>
332.2

> <PUBCHEM_COORDINATE_TYPE>
2
5
10

