155269237
  -OEChem-06302411133D

 42 45  0     0  0  0  0  0  0999 V2000
    4.6209   -1.2827   -1.0941 Cl  0  0  0  0  0  0  0  0  0  0  0  0
    5.3492    1.5408   -2.4977 Cl  0  0  0  0  0  0  0  0  0  0  0  0
   -5.8637    0.4919   -1.3277 S   0  0  0  0  0  0  0  0  0  0  0  0
    0.4694    1.9013    1.9482 O   0  0  0  0  0  0  0  0  0  0  0  0
   -3.6524    1.0611   -0.1597 N   0  0  0  0  0  0  0  0  0  0  0  0
   -3.5568   -1.0543   -0.8721 N   0  0  0  0  0  0  0  0  0  0  0  0
   -0.2623    0.9139    1.2742 N   0  0  0  0  0  0  0  0  0  0  0  0
   -2.3855   -0.6928   -0.2319 C   0  0  0  0  0  0  0  0  0  0  0  0
   -2.4226    0.6169    0.2187 C   0  0  0  0  0  0  0  0  0  0  0  0
   -1.2772   -1.5904   -0.0635 C   0  0  0  0  0  0  0  0  0  0  0  0
   -4.2747    0.0319   -0.7983 C   0  0  0  0  0  0  0  0  0  0  0  0
   -4.3774    2.2247   -0.0613 C   0  0  0  0  0  0  0  0  0  0  0  0
   -0.2763   -1.6522   -1.0330 C   0  0  0  0  0  0  0  0  0  0  0  0
   -1.2021   -2.4009    1.0691 C   0  0  0  0  0  0  0  0  0  0  0  0
   -1.4419    1.3812    0.9222 C   0  0  0  0  0  0  0  0  0  0  0  0
    0.8748   -3.3352    0.2628 C   0  0  0  0  0  0  0  0  0  0  0  0
   -5.5869    2.0998   -0.6336 C   0  0  0  0  0  0  0  0  0  0  0  0
    0.7998   -2.5247   -0.8699 C   0  0  0  0  0  0  0  0  0  0  0  0
   -0.1261   -3.2733    1.2322 C   0  0  0  0  0  0  0  0  0  0  0  0
    2.0254   -4.2679    0.4375 C   0  0  0  0  0  0  0  0  0  0  0  0
    2.6328    1.3807    1.1084 C   0  0  0  0  0  0  0  0  0  0  0  0
    1.7282    1.3507    2.3052 C   0  0  0  0  0  0  0  0  0  0  0  0
    3.1597    0.1932    0.6009 C   0  0  0  0  0  0  0  0  0  0  0  0
    2.9462    2.5976    0.5031 C   0  0  0  0  0  0  0  0  0  0  0  0
    4.0000    0.2224   -0.5120 C   0  0  0  0  0  0  0  0  0  0  0  0
    3.7864    2.6269   -0.6100 C   0  0  0  0  0  0  0  0  0  0  0  0
    4.3133    1.4393   -1.1175 C   0  0  0  0  0  0  0  0  0  0  0  0
   -3.9790    3.1018    0.4252 H   0  0  0  0  0  0  0  0  0  0  0  0
   -0.3197   -1.0265   -1.9214 H   0  0  0  0  0  0  0  0  0  0  0  0
   -1.9740   -2.3643    1.8342 H   0  0  0  0  0  0  0  0  0  0  0  0
   -1.6968    2.4244    1.1820 H   0  0  0  0  0  0  0  0  0  0  0  0
   -6.3366    2.8767   -0.6837 H   0  0  0  0  0  0  0  0  0  0  0  0
    1.5726   -2.5633   -1.6327 H   0  0  0  0  0  0  0  0  0  0  0  0
   -0.0772   -3.8984    2.1199 H   0  0  0  0  0  0  0  0  0  0  0  0
    1.7162   -5.1813    0.9568 H   0  0  0  0  0  0  0  0  0  0  0  0
    2.8164   -3.7829    1.0183 H   0  0  0  0  0  0  0  0  0  0  0  0
    2.4395   -4.5733   -0.5295 H   0  0  0  0  0  0  0  0  0  0  0  0
    1.6052    0.3407    2.7163 H   0  0  0  0  0  0  0  0  0  0  0  0
    2.1590    1.9684    3.1011 H   0  0  0  0  0  0  0  0  0  0  0  0
    2.9143   -0.7536    1.0767 H   0  0  0  0  0  0  0  0  0  0  0  0
    2.5436    3.5297    0.8907 H   0  0  0  0  0  0  0  0  0  0  0  0
    4.0205    3.5842   -1.0689 H   0  0  0  0  0  0  0  0  0  0  0  0
  1 25  1  0  0  0  0
  2 27  1  0  0  0  0
  3 11  1  0  0  0  0
  3 17  1  0  0  0  0
  4  7  1  0  0  0  0
  4 22  1  0  0  0  0
  5  9  1  0  0  0  0
  5 11  1  0  0  0  0
  5 12  1  0  0  0  0
  6  8  1  0  0  0  0
  6 11  2  0  0  0  0
  7 15  2  3  0  0  0
  8  9  2  0  0  0  0
  8 10  1  0  0  0  0
  9 15  1  0  0  0  0
 10 13  2  0  0  0  0
 10 14  1  0  0  0  0
 12 17  2  0  0  0  0
 12 28  1  0  0  0  0
 13 18  1  0  0  0  0
 13 29  1  0  0  0  0
 14 19  2  0  0  0  0
 14 30  1  0  0  0  0
 15 31  1  0  0  0  0
 16 18  2  0  0  0  0
 16 19  1  0  0  0  0
 16 20  1  0  0  0  0
 17 32  1  0  0  0  0
 18 33  1  0  0  0  0
 19 34  1  0  0  0  0
 20 35  1  0  0  0  0
 20 36  1  0  0  0  0
 20 37  1  0  0  0  0
 21 22  1  0  0  0  0
 21 23  2  0  0  0  0
 21 24  1  0  0  0  0
 22 38  1  0  0  0  0
 22 39  1  0  0  0  0
 23 25  1  0  0  0  0
 23 40  1  0  0  0  0
 24 26  2  0  0  0  0
 24 41  1  0  0  0  0
 25 27  2  0  0  0  0
 26 27  1  0  0  0  0
 26 42  1  0  0  0  0
M  END
> <PUBCHEM_COMPOUND_CID>
155269237

> <PUBCHEM_CONFORMER_RMSD>
0.8

> <PUBCHEM_CONFORMER_DIVERSEORDER>
1
9
117
158
149
163
34
13
146
55
30
41
52
26
10
99
125
127
161
70
24
84
40
5
164
7
37
147
56
8
69
133
106
115
73
152
54
86
175
98
53
36
16
6
90
75
3
14
113
19
171
43
61
48
45
150
129
11
173
123
122
134
87
2
39
91
22
120
97
126
4
50
65
132
17
35
72
162
118
20
28
148
135
12
100
33
46
165
15
93
76
131
67
60
29
119
57
116
155
124
62
170
174
74
79
58
103
168
92
25
140
169
142
145
172
139
47
51
111
141
80
101
42
68
96
81
31
105
160
95
154
49
44
38
104
159
121
109
137
143
82
27
63
94
108
88
128
64
110
156
151
107
153
59
138
157
112
136
102
78
166
114
21
130
23
77
71
89
32
83
18
167
85
66
144

> <PUBCHEM_MMFF94_PARTIAL_CHARGES>
37
1 -0.18
10 0.05
11 0.24
12 -0.18
13 -0.15
14 -0.15
15 0.47
16 -0.14
17 -0.05
18 -0.15
19 -0.15
2 -0.18
20 0.14
21 -0.14
22 0.42
23 -0.15
24 -0.15
25 0.18
26 -0.15
27 0.18
28 0.15
29 0.15
3 -0.16
30 0.15
31 0.06
32 0.15
33 0.15
34 0.15
4 -0.22
40 0.15
41 0.15
42 0.15
5 0.33
6 -0.57
7 -0.51
8 0.17
9 -0.24

> <PUBCHEM_EFFECTIVE_ROTOR_COUNT>
5

> <PUBCHEM_PHARMACOPHORE_FEATURES>
6
1 7 acceptor
3 5 6 11 cation
5 3 5 11 12 17 rings
5 5 6 8 9 11 rings
6 10 13 14 16 18 19 rings
6 21 23 24 25 26 27 rings

> <PUBCHEM_HEAVY_ATOM_COUNT>
27

> <PUBCHEM_ATOM_DEF_STEREO_COUNT>
0

> <PUBCHEM_ATOM_UDEF_STEREO_COUNT>
0

> <PUBCHEM_BOND_DEF_STEREO_COUNT>
0

> <PUBCHEM_BOND_UDEF_STEREO_COUNT>
1

> <PUBCHEM_ISOTOPIC_ATOM_COUNT>
0

> <PUBCHEM_COMPONENT_COUNT>
1

> <PUBCHEM_CACTVS_TAUTO_COUNT>
-1

> <PUBCHEM_CONFORMER_ID>
0941387500000001

> <PUBCHEM_MMFF94_ENERGY>
65.735

> <PUBCHEM_FEATURE_SELFOVERLAP>
30.7

> <PUBCHEM_SHAPE_FINGERPRINT>
10190108 129 18196657522381684451
10305334 12 13411071635959489022
10675989 125 18343299245510553272
10764073 3 17838378316316302411
107951 10 18336551624012066375
10816530 90 17626673696402797569
11370993 70 18337389443556628348
11578080 2 18043272188182665963
12035759 4 17917149386449866417
12124843 1 18272382961922112628
12173636 292 18192702564983878695
12363563 72 16630261280702863152
12592029 89 18411692184793823371
12788726 201 17539116664024220546
12895836 83 18115312305418871988
12895837 130 17389117929821442460
133893 2 18196659501632854761
13617811 41 18191573363086300165
13726171 33 18119823653067368824
13941206 138 18333735736115543322
14114211 68 18265072295828247871
14117953 113 16397190838409429148
14848178 96 18335698325789959103
14931854 50 18272382936362863084
15163728 17 18186527596255862181
15322687 12 18409730647217336180
15975801 100 15002475796410759876
17349148 13 13829862356082910485
18608769 82 18124596641870536979
20567600 9 18339638932583014637
20642791 178 18266737970229605515
20771845 171 18040989619091272903
20905425 154 17986385586021230097
21133410 230 17827394207491316546
21315764 21 18410300215947437082
21781051 124 18338797931317071059
22393880 68 17988348347990593317
22907989 373 17829605415895380999
23366157 5 18118388571845037371
23559900 14 17988638657694556616
238 59 17846222197834614702
25265897 201 17757874312323428308
27425 322 17022910089609994624
3004659 81 18341611491272475000
3298306 158 18341887502644421427
4015057 19 16987727972848953528
4058900 60 18187937148471478632
437795 51 18339376188655033971
474 4 18334573508325962871
484989 97 18339931514256079515
513532 50 16414324854812415841
59755656 215 18268977839415608511
6138700 20 18271520888981870674
9981440 41 18336260244914825979

> <PUBCHEM_SHAPE_MULTIPOLES>
542.42
11.37
4.36
1.76
6.21
4.14
0.14
-9.12
-7.32
-2.41
0.75
-1.53
-0.73
-0.18

> <PUBCHEM_SHAPE_SELFOVERLAP>
1160.445

> <PUBCHEM_SHAPE_VOLUME>
304.9

> <PUBCHEM_COORDINATE_TYPE>
2
5
10

