155269229
  -OEChem-06302411133D

 45 49  0     0  0  0  0  0  0999 V2000
    4.6007    3.2855   -1.4962 Cl  0  0  0  0  0  0  0  0  0  0  0  0
    5.5173    0.2235   -2.0051 Cl  0  0  0  0  0  0  0  0  0  0  0  0
   -5.7745    0.8514   -1.4500 S   0  0  0  0  0  0  0  0  0  0  0  0
    0.5364    2.1831    1.9003 O   0  0  0  0  0  0  0  0  0  0  0  0
   -3.5625    1.3963   -0.2720 N   0  0  0  0  0  0  0  0  0  0  0  0
   -3.7004   -0.8177   -0.5378 N   0  0  0  0  0  0  0  0  0  0  0  0
   -0.2827    1.1667    1.3897 N   0  0  0  0  0  0  0  0  0  0  0  0
   -1.5382   -1.4334    0.5169 C   0  0  0  0  0  0  0  0  0  0  0  0
   -2.5221   -0.4663    0.0951 C   0  0  0  0  0  0  0  0  0  0  0  0
   -2.4152    0.9039    0.2705 C   0  0  0  0  0  0  0  0  0  0  0  0
   -0.4836   -1.8462   -0.3134 C   0  0  0  0  0  0  0  0  0  0  0  0
    0.4443   -2.7999    0.1688 C   0  0  0  0  0  0  0  0  0  0  0  0
   -4.2798    0.3343   -0.7322 C   0  0  0  0  0  0  0  0  0  0  0  0
   -1.6759   -1.9534    1.8043 C   0  0  0  0  0  0  0  0  0  0  0  0
   -0.3294   -1.3335   -1.6118 C   0  0  0  0  0  0  0  0  0  0  0  0
   -4.1404    2.6293   -0.4584 C   0  0  0  0  0  0  0  0  0  0  0  0
    0.2902   -3.3128    1.4671 C   0  0  0  0  0  0  0  0  0  0  0  0
   -0.7635   -2.8912    2.2784 C   0  0  0  0  0  0  0  0  0  0  0  0
    1.4991   -3.2126   -0.6614 C   0  0  0  0  0  0  0  0  0  0  0  0
   -1.3785    1.6814    0.8717 C   0  0  0  0  0  0  0  0  0  0  0  0
   -5.3299    2.5263   -1.0750 C   0  0  0  0  0  0  0  0  0  0  0  0
    0.7248   -1.7548   -2.4229 C   0  0  0  0  0  0  0  0  0  0  0  0
    1.6372   -2.6925   -1.9486 C   0  0  0  0  0  0  0  0  0  0  0  0
    1.6999    1.5797    2.4453 C   0  0  0  0  0  0  0  0  0  0  0  0
    2.6523    1.2587    1.3313 C   0  0  0  0  0  0  0  0  0  0  0  0
    3.1427    2.2784    0.5156 C   0  0  0  0  0  0  0  0  0  0  0  0
    3.0475   -0.0609    1.1118 C   0  0  0  0  0  0  0  0  0  0  0  0
    4.0281    1.9786   -0.5196 C   0  0  0  0  0  0  0  0  0  0  0  0
    3.9329   -0.3607    0.0765 C   0  0  0  0  0  0  0  0  0  0  0  0
    4.4233    0.6591   -0.7392 C   0  0  0  0  0  0  0  0  0  0  0  0
   -2.4901   -1.6385    2.4532 H   0  0  0  0  0  0  0  0  0  0  0  0
   -1.0162   -0.6009   -2.0282 H   0  0  0  0  0  0  0  0  0  0  0  0
   -3.6572    3.5373   -0.1315 H   0  0  0  0  0  0  0  0  0  0  0  0
    0.9921   -4.0462    1.8587 H   0  0  0  0  0  0  0  0  0  0  0  0
   -0.8710   -3.2953    3.2808 H   0  0  0  0  0  0  0  0  0  0  0  0
    2.2252   -3.9432   -0.3109 H   0  0  0  0  0  0  0  0  0  0  0  0
   -1.5122    2.7778    0.8991 H   0  0  0  0  0  0  0  0  0  0  0  0
   -5.9740    3.3557   -1.3308 H   0  0  0  0  0  0  0  0  0  0  0  0
    0.8338   -1.3500   -3.4249 H   0  0  0  0  0  0  0  0  0  0  0  0
    2.4587   -3.0186   -2.5798 H   0  0  0  0  0  0  0  0  0  0  0  0
    1.4342    0.6971    3.0409 H   0  0  0  0  0  0  0  0  0  0  0  0
    2.1693    2.2960    3.1289 H   0  0  0  0  0  0  0  0  0  0  0  0
    2.8331    3.3061    0.6927 H   0  0  0  0  0  0  0  0  0  0  0  0
    2.6753   -0.8645    1.7413 H   0  0  0  0  0  0  0  0  0  0  0  0
    4.2329   -1.3940   -0.0786 H   0  0  0  0  0  0  0  0  0  0  0  0
  1 28  1  0  0  0  0
  2 30  1  0  0  0  0
  3 13  1  0  0  0  0
  3 21  1  0  0  0  0
  4  7  1  0  0  0  0
  4 24  1  0  0  0  0
  5 10  1  0  0  0  0
  5 13  1  0  0  0  0
  5 16  1  0  0  0  0
  6  9  1  0  0  0  0
  6 13  2  0  0  0  0
  7 20  2  3  0  0  0
  8  9  1  0  0  0  0
  8 11  1  0  0  0  0
  8 14  2  0  0  0  0
  9 10  2  0  0  0  0
 10 20  1  0  0  0  0
 11 12  1  0  0  0  0
 11 15  2  0  0  0  0
 12 17  1  0  0  0  0
 12 19  2  0  0  0  0
 14 18  1  0  0  0  0
 14 31  1  0  0  0  0
 15 22  1  0  0  0  0
 15 32  1  0  0  0  0
 16 21  2  0  0  0  0
 16 33  1  0  0  0  0
 17 18  2  0  0  0  0
 17 34  1  0  0  0  0
 18 35  1  0  0  0  0
 19 23  1  0  0  0  0
 19 36  1  0  0  0  0
 20 37  1  0  0  0  0
 21 38  1  0  0  0  0
 22 23  2  0  0  0  0
 22 39  1  0  0  0  0
 23 40  1  0  0  0  0
 24 25  1  0  0  0  0
 24 41  1  0  0  0  0
 24 42  1  0  0  0  0
 25 26  2  0  0  0  0
 25 27  1  0  0  0  0
 26 28  1  0  0  0  0
 26 43  1  0  0  0  0
 27 29  2  0  0  0  0
 27 44  1  0  0  0  0
 28 30  2  0  0  0  0
 29 30  1  0  0  0  0
 29 45  1  0  0  0  0
M  END
> <PUBCHEM_COMPOUND_CID>
155269229

> <PUBCHEM_CONFORMER_RMSD>
0.8

> <PUBCHEM_CONFORMER_DIVERSEORDER>
1
26
178
36
59
268
247
238
360
317
193
189
111
112
296
82
12
138
307
221
379
164
222
321
253
158
245
394
80
181
309
120
43
156
359
168
10
201
354
389
293
289
137
119
377
210
191
107
349
248
165
113
200
240
85
332
282
269
330
77
254
100
56
401
231
243
44
173
149
45
143
7
295
384
225
136
109
310
398
2
104
281
205
274
38
303
263
212
366
224
124
48
239
23
78
140
75
174
262
345
148
51
320
187
84
17
150
327
162
381
265
8
73
146
121
33
306
355
229
57
312
92
170
83
70
86
96
256
328
227
47
95
395
259
365
347
30
393
350
285
399
182
110
3
24
264
284
132
16
369
114
129
385
179
55
72
94
139
386
313
97
123
237
19
68
5
220
53
215
152
6
157
305
276
261
211
18
372
380
283
175
302
374
163
37
277
171
230
22
352
103
362
383
387
213
314
141
270
376
300
255
251
186
40
257
27
15
135
252
199
250
333
115
32
290
147
54
134
382
60
291
49
167
273
246
192
69
127
206
402
294
397
133
338
91
216
9
233
39
203
358
322
102
288
172
52
249
390
343
93
356
176
4
161
351
207
63
378
204
392
105
87
25
223
155
131
42
325
35
34
65
31
118
108
319
14
20
144
337
214
219
154
46
391
278
271
62
98
101
266
370
13
323
226
218
368
202
99
169
185
344
346
286
142
11
88
275
183
81
208
198
339
71
21
298
292
41
297
241
403
367
89
61
196
180
74
66
267
342
190
244
234
299
336
128
318
166
324
258
326
29
396
116
177
311
315
184
197
67
334
335
375
209
217
260
279
160
363
122
117
316
58
188
287
106
228
28
400
341
301
304
153
50
348
195
371
353
242
373
90
126
79
361
388
236
145
232
308
235
329
280
159
130
340
364
357
272
125
331
76
151
64
194

> <PUBCHEM_MMFF94_PARTIAL_CHARGES>
41
1 -0.18
10 -0.24
13 0.24
14 -0.15
15 -0.15
16 -0.18
17 -0.15
18 -0.15
19 -0.15
2 -0.18
20 0.47
21 -0.05
22 -0.15
23 -0.15
24 0.42
25 -0.14
26 -0.15
27 -0.15
28 0.18
29 -0.15
3 -0.16
30 0.18
31 0.15
32 0.15
33 0.15
34 0.15
35 0.15
36 0.15
37 0.06
38 0.15
39 0.15
4 -0.22
40 0.15
43 0.15
44 0.15
45 0.15
5 0.33
6 -0.57
7 -0.51
8 0.05
9 0.17

> <PUBCHEM_EFFECTIVE_ROTOR_COUNT>
5

> <PUBCHEM_PHARMACOPHORE_FEATURES>
7
1 7 acceptor
3 5 6 13 cation
5 3 5 13 16 21 rings
5 5 6 9 10 13 rings
6 11 12 15 19 22 23 rings
6 25 26 27 28 29 30 rings
6 8 11 12 14 17 18 rings

> <PUBCHEM_HEAVY_ATOM_COUNT>
30

> <PUBCHEM_ATOM_DEF_STEREO_COUNT>
0

> <PUBCHEM_ATOM_UDEF_STEREO_COUNT>
0

> <PUBCHEM_BOND_DEF_STEREO_COUNT>
0

> <PUBCHEM_BOND_UDEF_STEREO_COUNT>
1

> <PUBCHEM_ISOTOPIC_ATOM_COUNT>
0

> <PUBCHEM_COMPONENT_COUNT>
1

> <PUBCHEM_CACTVS_TAUTO_COUNT>
-1

> <PUBCHEM_CONFORMER_ID>
0941386D00000001

> <PUBCHEM_MMFF94_ENERGY>
80.1099

> <PUBCHEM_FEATURE_SELFOVERLAP>
35.802

> <PUBCHEM_SHAPE_FINGERPRINT>
10675989 125 18270955748179144624
107951 10 18260547874120389538
10816530 90 17696468482631291385
11370993 70 18335421287583225148
11578080 2 18115887208872433233
12124843 1 18201447943502287836
12467345 10 17315924539717418516
12633257 1 17604413133888291578
12788726 201 17536585562624270771
133893 2 18197503917888773017
13726171 33 18191321565669538416
14040221 304 17689664936569899549
144659 39 16878524379188276529
14931854 50 18129675097400912652
15163728 17 18113623352510664573
15238133 3 18334847313055215298
17492 54 18131068199448731630
20691752 17 17899144819147073825
20905425 154 17983846796508683089
21133410 230 17899729956580540515
21475661 188 18335980878856409926
21860390 5 18124866872406498142
22907989 373 18121789588462973473
23366157 5 17827057542911793659
23419403 2 18052576268224678227
23559900 14 18270675347027802330
238 59 17989489623669391182
25265897 201 17827959343888514380
27425 322 16950290619260411664
3298306 158 18272078401284960701
4058900 60 18041849410755130424
437795 51 18267883709254831769
474 4 18261668177980185723
513532 50 16126650818754636273
5283178 26 17340720734784987970
57527306 92 18050261710491561674
59755656 215 18270950324547013453
9981440 41 18410013268739922714

> <PUBCHEM_SHAPE_MULTIPOLES>
604.16
10.36
4.33
2.31
2.95
1.35
0.2
-10.61
-6.15
-0.83
0.18
-1.14
0.58
1.18

> <PUBCHEM_SHAPE_SELFOVERLAP>
1320.488

> <PUBCHEM_SHAPE_VOLUME>
332

> <PUBCHEM_COORDINATE_TYPE>
2
5
10

