155269222
  -OEChem-06302411133D

 39 42  0     0  0  0  0  0  0999 V2000
   -0.1817   -4.5949    1.8985 Cl  0  0  0  0  0  0  0  0  0  0  0  0
    4.6341   -1.3332   -1.3586 Cl  0  0  0  0  0  0  0  0  0  0  0  0
    5.5098    1.6239   -2.3380 Cl  0  0  0  0  0  0  0  0  0  0  0  0
   -5.7485    0.9829   -1.3102 S   0  0  0  0  0  0  0  0  0  0  0  0
    0.6299    1.5794    2.1227 O   0  0  0  0  0  0  0  0  0  0  0  0
   -3.5177    1.2637   -0.0764 N   0  0  0  0  0  0  0  0  0  0  0  0
   -3.5246   -0.7275   -1.0894 N   0  0  0  0  0  0  0  0  0  0  0  0
   -0.1468    0.7386    1.3136 N   0  0  0  0  0  0  0  0  0  0  0  0
   -2.3137    0.7079    0.2307 C   0  0  0  0  0  0  0  0  0  0  0  0
   -2.3401   -0.5225   -0.4060 C   0  0  0  0  0  0  0  0  0  0  0  0
   -4.1874    0.3712   -0.8566 C   0  0  0  0  0  0  0  0  0  0  0  0
   -1.2790   -1.4898   -0.3725 C   0  0  0  0  0  0  0  0  0  0  0  0
   -4.1839    2.4357    0.1920 C   0  0  0  0  0  0  0  0  0  0  0  0
   -1.2997    1.3111    1.0359 C   0  0  0  0  0  0  0  0  0  0  0  0
   -5.3951    2.4566   -0.3899 C   0  0  0  0  0  0  0  0  0  0  0  0
   -1.2499   -2.4594    0.6297 C   0  0  0  0  0  0  0  0  0  0  0  0
   -0.2773   -1.4591   -1.3426 C   0  0  0  0  0  0  0  0  0  0  0  0
   -0.2189   -3.3984    0.6619 C   0  0  0  0  0  0  0  0  0  0  0  0
    0.7537   -2.3981   -1.3105 C   0  0  0  0  0  0  0  0  0  0  0  0
    2.7688    1.0782    1.2117 C   0  0  0  0  0  0  0  0  0  0  0  0
    1.8576    0.9199    2.3931 C   0  0  0  0  0  0  0  0  0  0  0  0
    0.7829   -3.3677   -0.3082 C   0  0  0  0  0  0  0  0  0  0  0  0
    3.2387   -0.0480    0.5361 C   0  0  0  0  0  0  0  0  0  0  0  0
    3.1462    2.3528    0.7891 C   0  0  0  0  0  0  0  0  0  0  0  0
    4.0859    0.1003   -0.5621 C   0  0  0  0  0  0  0  0  0  0  0  0
    3.9934    2.5011   -0.3090 C   0  0  0  0  0  0  0  0  0  0  0  0
    4.4632    1.3748   -0.9846 C   0  0  0  0  0  0  0  0  0  0  0  0
   -3.7445    3.2114    0.8002 H   0  0  0  0  0  0  0  0  0  0  0  0
   -1.5032    2.3169    1.4455 H   0  0  0  0  0  0  0  0  0  0  0  0
   -6.1046    3.2694   -0.3249 H   0  0  0  0  0  0  0  0  0  0  0  0
   -2.0307   -2.4846    1.3876 H   0  0  0  0  0  0  0  0  0  0  0  0
   -0.2851   -0.7095   -2.1304 H   0  0  0  0  0  0  0  0  0  0  0  0
    1.5322   -2.3750   -2.0672 H   0  0  0  0  0  0  0  0  0  0  0  0
    1.6818   -0.1316    2.6530 H   0  0  0  0  0  0  0  0  0  0  0  0
    2.3146    1.3926    3.2696 H   0  0  0  0  0  0  0  0  0  0  0  0
    1.5930   -4.0924   -0.2955 H   0  0  0  0  0  0  0  0  0  0  0  0
    2.9436   -1.0403    0.8696 H   0  0  0  0  0  0  0  0  0  0  0  0
    2.7886    3.2379    1.3087 H   0  0  0  0  0  0  0  0  0  0  0  0
    4.2777    3.5019   -0.6244 H   0  0  0  0  0  0  0  0  0  0  0  0
  1 18  1  0  0  0  0
  2 25  1  0  0  0  0
  3 27  1  0  0  0  0
  4 11  1  0  0  0  0
  4 15  1  0  0  0  0
  5  8  1  0  0  0  0
  5 21  1  0  0  0  0
  6  9  1  0  0  0  0
  6 11  1  0  0  0  0
  6 13  1  0  0  0  0
  7 10  1  0  0  0  0
  7 11  2  0  0  0  0
  8 14  2  3  0  0  0
  9 10  2  0  0  0  0
  9 14  1  0  0  0  0
 10 12  1  0  0  0  0
 12 16  2  0  0  0  0
 12 17  1  0  0  0  0
 13 15  2  0  0  0  0
 13 28  1  0  0  0  0
 14 29  1  0  0  0  0
 15 30  1  0  0  0  0
 16 18  1  0  0  0  0
 16 31  1  0  0  0  0
 17 19  2  0  0  0  0
 17 32  1  0  0  0  0
 18 22  2  0  0  0  0
 19 22  1  0  0  0  0
 19 33  1  0  0  0  0
 20 21  1  0  0  0  0
 20 23  2  0  0  0  0
 20 24  1  0  0  0  0
 21 34  1  0  0  0  0
 21 35  1  0  0  0  0
 22 36  1  0  0  0  0
 23 25  1  0  0  0  0
 23 37  1  0  0  0  0
 24 26  2  0  0  0  0
 24 38  1  0  0  0  0
 25 27  2  0  0  0  0
 26 27  1  0  0  0  0
 26 39  1  0  0  0  0
M  END
> <PUBCHEM_COMPOUND_CID>
155269222

> <PUBCHEM_CONFORMER_RMSD>
1

> <PUBCHEM_CONFORMER_DIVERSEORDER>
1
5
33
155
40
171
14
83
94
27
177
157
117
75
132
105
16
143
12
32
174
175
131
24
17
110
28
86
127
58
20
160
34
29
76
23
120
65
18
57
134
49
116
90
85
170
172
149
11
93
25
140
142
38
178
74
2
159
106
13
48
141
164
156
4
39
36
77
21
44
31
176
55
118
165
98
3
71
104
124
96
8
9
103
99
63
84
113
62
162
7
30
42
146
168
41
67
43
129
107
121
22
108
37
173
167
92
136
97
147
60
10
15
53
73
145
64
45
130
88
72
79
87
154
26
66
59
102
123
122
148
50
95
52
125
68
128
139
19
82
169
6
144
70
112
138
150
61
158
151
54
78
47
126
135
114
115
89
51
80
152
100
133
119
46
137
101
69
56
81
161
109
35
111
163
153
91
166

> <PUBCHEM_MMFF94_PARTIAL_CHARGES>
37
1 -0.18
10 0.17
11 0.24
12 0.05
13 -0.18
14 0.47
15 -0.05
16 -0.15
17 -0.15
18 0.18
19 -0.15
2 -0.18
20 -0.14
21 0.42
22 -0.15
23 -0.15
24 -0.15
25 0.18
26 -0.15
27 0.18
28 0.15
29 0.06
3 -0.18
30 0.15
31 0.15
32 0.15
33 0.15
36 0.15
37 0.15
38 0.15
39 0.15
4 -0.16
5 -0.22
6 0.33
7 -0.57
8 -0.51
9 -0.24

> <PUBCHEM_EFFECTIVE_ROTOR_COUNT>
5

> <PUBCHEM_PHARMACOPHORE_FEATURES>
6
1 8 acceptor
3 6 7 11 cation
5 4 6 11 13 15 rings
5 6 7 9 10 11 rings
6 12 16 17 18 19 22 rings
6 20 23 24 25 26 27 rings

> <PUBCHEM_HEAVY_ATOM_COUNT>
27

> <PUBCHEM_ATOM_DEF_STEREO_COUNT>
0

> <PUBCHEM_ATOM_UDEF_STEREO_COUNT>
0

> <PUBCHEM_BOND_DEF_STEREO_COUNT>
0

> <PUBCHEM_BOND_UDEF_STEREO_COUNT>
1

> <PUBCHEM_ISOTOPIC_ATOM_COUNT>
0

> <PUBCHEM_COMPONENT_COUNT>
1

> <PUBCHEM_CACTVS_TAUTO_COUNT>
-1

> <PUBCHEM_CONFORMER_ID>
0941386600000001

> <PUBCHEM_MMFF94_ENERGY>
64.1856

> <PUBCHEM_FEATURE_SELFOVERLAP>
30.7

> <PUBCHEM_SHAPE_FINGERPRINT>
10675989 125 18200871773418320552
10764073 3 17767729183656836763
107951 10 18337112357773009751
10816530 90 17484246254354269385
11370993 70 18412260666359452348
11578080 2 18190483583906748995
12035759 4 17631732647716256273
12124843 1 18059586771485556932
12363563 72 16199883833772874568
12592029 89 18339913836655154977
12788726 201 17829312936991405803
12895836 83 18261115226689868548
12895837 130 17606696970143132732
13257819 37 18335987570610453783
133893 2 18126005953926279009
13617811 41 18338502106928880397
13726171 33 18122636216922864728
13782708 43 12462698812952000557
13941206 138 18334859415508495643
14114211 68 18267887024210091343
14251757 17 17202753925194288347
14848178 96 18410289177448989293
14931854 50 18059587849680129012
15163728 17 18260554398481537197
15238133 3 18411130334642374446
15322687 12 18412545379762479508
17349148 13 13326580691161684356
19309040 13 16445065078722768718
20567600 9 18268986493025623309
20771845 171 18041548141038926517
21133410 230 17974321933573827379
21315764 21 18342463638442801786
21781051 124 18341330089394844811
22907989 373 17976253865850233791
23366157 5 18119797016212312083
23559900 14 17774714359663816384
238 59 17346320435925642326
25265897 201 17904519468070253788
27425 322 17385731326037064352
3004659 81 18272086055365036064
3298306 158 18272642437933517197
340366 18 18260833730491509572
3759504 43 18334574689383771651
4015057 19 16988284312726361080
4058900 60 18261966141061863865
437795 51 18270415914561726859
474 4 18335979766602324343
57527585 103 17694552179534321814
59755656 215 18200580489495064319
6138700 20 18129658583077864734
633830 44 18341881992153849773

> <PUBCHEM_SHAPE_MULTIPOLES>
544.29
11.2
4.48
1.95
2.37
5.29
0.41
-11.35
-6.63
0.04
1.36
-1.61
-0.08
0.25

> <PUBCHEM_SHAPE_SELFOVERLAP>
1157.284

> <PUBCHEM_SHAPE_VOLUME>
308.5

> <PUBCHEM_COORDINATE_TYPE>
2
5
10

