155269220
  -OEChem-06302411133D

 51 54  0     0  0  0  0  0  0999 V2000
    3.5239    4.8518   -0.9926 Cl  0  0  0  0  0  0  0  0  0  0  0  0
    4.9398    2.3136   -2.4160 Cl  0  0  0  0  0  0  0  0  0  0  0  0
   -6.1607    0.4078   -1.2495 S   0  0  0  0  0  0  0  0  0  0  0  0
    0.0893    2.0264    2.0886 O   0  0  0  0  0  0  0  0  0  0  0  0
   -3.9841    1.0473   -0.0530 N   0  0  0  0  0  0  0  0  0  0  0  0
   -3.7320   -0.9825   -0.9517 N   0  0  0  0  0  0  0  0  0  0  0  0
   -0.5719    1.0467    1.3352 N   0  0  0  0  0  0  0  0  0  0  0  0
    2.1442   -3.8672    0.0248 C   0  0  0  0  0  0  0  0  0  0  0  0
    0.8829   -2.9917   -0.0595 C   0  0  0  0  0  0  0  0  0  0  0  0
    3.1443   -3.6355   -1.1303 C   0  0  0  0  0  0  0  0  0  0  0  0
    2.8935   -3.5732    1.3424 C   0  0  0  0  0  0  0  0  0  0  0  0
    1.7449   -5.3583   -0.0101 C   0  0  0  0  0  0  0  0  0  0  0  0
   -0.1051   -3.0961    0.9195 C   0  0  0  0  0  0  0  0  0  0  0  0
    0.7269   -2.0932   -1.1149 C   0  0  0  0  0  0  0  0  0  0  0  0
   -1.4053   -1.4032   -0.2122 C   0  0  0  0  0  0  0  0  0  0  0  0
   -1.2493   -2.3018    0.8432 C   0  0  0  0  0  0  0  0  0  0  0  0
   -0.4172   -1.2989   -1.1912 C   0  0  0  0  0  0  0  0  0  0  0  0
   -2.5836   -0.5861   -0.2912 C   0  0  0  0  0  0  0  0  0  0  0  0
   -2.7175    0.6716    0.2746 C   0  0  0  0  0  0  0  0  0  0  0  0
   -4.5324    0.0319   -0.7757 C   0  0  0  0  0  0  0  0  0  0  0  0
   -4.7975    2.1358    0.1543 C   0  0  0  0  0  0  0  0  0  0  0  0
   -1.7900    1.4471    1.0355 C   0  0  0  0  0  0  0  0  0  0  0  0
   -6.0017    1.9652   -0.4172 C   0  0  0  0  0  0  0  0  0  0  0  0
    1.3930    1.5492    2.3853 C   0  0  0  0  0  0  0  0  0  0  0  0
    2.2743    1.7570    1.1888 C   0  0  0  0  0  0  0  0  0  0  0  0
    2.4834    3.0428    0.6900 C   0  0  0  0  0  0  0  0  0  0  0  0
    2.8851    0.6632    0.5757 C   0  0  0  0  0  0  0  0  0  0  0  0
    3.3035    3.2346   -0.4219 C   0  0  0  0  0  0  0  0  0  0  0  0
    3.7051    0.8550   -0.5362 C   0  0  0  0  0  0  0  0  0  0  0  0
    3.9144    2.1406   -1.0350 C   0  0  0  0  0  0  0  0  0  0  0  0
    4.0237   -4.2822   -1.0219 H   0  0  0  0  0  0  0  0  0  0  0  0
    2.7008   -3.8658   -2.1061 H   0  0  0  0  0  0  0  0  0  0  0  0
    3.5122   -2.6032   -1.1502 H   0  0  0  0  0  0  0  0  0  0  0  0
    2.2858   -3.7985    2.2255 H   0  0  0  0  0  0  0  0  0  0  0  0
    3.1912   -2.5221    1.4072 H   0  0  0  0  0  0  0  0  0  0  0  0
    3.8045   -4.1786    1.4196 H   0  0  0  0  0  0  0  0  0  0  0  0
    1.1820   -5.5948   -0.9209 H   0  0  0  0  0  0  0  0  0  0  0  0
    1.1207   -5.6405    0.8449 H   0  0  0  0  0  0  0  0  0  0  0  0
    2.6297   -6.0053    0.0124 H   0  0  0  0  0  0  0  0  0  0  0  0
   -0.0091   -3.7874    1.7515 H   0  0  0  0  0  0  0  0  0  0  0  0
    1.4635   -1.9706   -1.9008 H   0  0  0  0  0  0  0  0  0  0  0  0
   -2.0104   -2.3950    1.6142 H   0  0  0  0  0  0  0  0  0  0  0  0
   -0.5239   -0.6023   -2.0196 H   0  0  0  0  0  0  0  0  0  0  0  0
   -4.4625    2.9957    0.7139 H   0  0  0  0  0  0  0  0  0  0  0  0
   -2.1226    2.4396    1.3892 H   0  0  0  0  0  0  0  0  0  0  0  0
   -6.8113    2.6809   -0.3921 H   0  0  0  0  0  0  0  0  0  0  0  0
    1.3567    0.5002    2.7056 H   0  0  0  0  0  0  0  0  0  0  0  0
    1.7854    2.1269    3.2297 H   0  0  0  0  0  0  0  0  0  0  0  0
    2.0067    3.8927    1.1736 H   0  0  0  0  0  0  0  0  0  0  0  0
    2.7270   -0.3408    0.9541 H   0  0  0  0  0  0  0  0  0  0  0  0
    4.1722   -0.0090   -1.0021 H   0  0  0  0  0  0  0  0  0  0  0  0
  1 28  1  0  0  0  0
  2 30  1  0  0  0  0
  3 20  1  0  0  0  0
  3 23  1  0  0  0  0
  4  7  1  0  0  0  0
  4 24  1  0  0  0  0
  5 19  1  0  0  0  0
  5 20  1  0  0  0  0
  5 21  1  0  0  0  0
  6 18  1  0  0  0  0
  6 20  2  0  0  0  0
  7 22  2  3  0  0  0
  8  9  1  0  0  0  0
  8 10  1  0  0  0  0
  8 11  1  0  0  0  0
  8 12  1  0  0  0  0
  9 13  2  0  0  0  0
  9 14  1  0  0  0  0
 10 31  1  0  0  0  0
 10 32  1  0  0  0  0
 10 33  1  0  0  0  0
 11 34  1  0  0  0  0
 11 35  1  0  0  0  0
 11 36  1  0  0  0  0
 12 37  1  0  0  0  0
 12 38  1  0  0  0  0
 12 39  1  0  0  0  0
 13 16  1  0  0  0  0
 13 40  1  0  0  0  0
 14 17  2  0  0  0  0
 14 41  1  0  0  0  0
 15 16  2  0  0  0  0
 15 17  1  0  0  0  0
 15 18  1  0  0  0  0
 16 42  1  0  0  0  0
 17 43  1  0  0  0  0
 18 19  2  0  0  0  0
 19 22  1  0  0  0  0
 21 23  2  0  0  0  0
 21 44  1  0  0  0  0
 22 45  1  0  0  0  0
 23 46  1  0  0  0  0
 24 25  1  0  0  0  0
 24 47  1  0  0  0  0
 24 48  1  0  0  0  0
 25 26  2  0  0  0  0
 25 27  1  0  0  0  0
 26 28  1  0  0  0  0
 26 49  1  0  0  0  0
 27 29  2  0  0  0  0
 27 50  1  0  0  0  0
 28 30  2  0  0  0  0
 29 30  1  0  0  0  0
 29 51  1  0  0  0  0
M  END
> <PUBCHEM_COMPOUND_CID>
155269220

> <PUBCHEM_CONFORMER_RMSD>
0.8

> <PUBCHEM_CONFORMER_DIVERSEORDER>
1
13
60
56
95
124
211
170
23
36
131
117
71
187
55
82
129
111
115
22
2
76
99
202
198
54
46
164
77
205
176
147
92
31
154
35
132
27
39
172
15
159
51
104
120
12
65
171
212
109
194
196
30
44
26
16
113
125
184
121
185
161
134
8
86
38
93
53
155
189
89
17
116
25
34
148
19
175
108
42
61
73
204
57
5
3
24
130
41
97
102
50
20
137
165
188
62
10
174
157
133
32
7
118
9
209
197
153
106
78
199
127
80
177
29
193
119
126
208
98
143
181
64
6
203
182
83
59
166
11
158
33
114
40
168
52
191
180
140
156
142
4
151
79
160
123
105
87
190
81
45
94
90
70
144
72
63
169
110
28
162
141
128
74
167
66
146
14
103
152
139
206
183
85
67
145
58
49
88
136
18
138
68
178
210
112
100
201
192
84
150
207
135
186
122
163
43
200
48
101
96
173
37
195
91
149
21
47
179
69
75
107

> <PUBCHEM_MMFF94_PARTIAL_CHARGES>
37
1 -0.18
13 -0.15
14 -0.15
15 0.05
16 -0.15
17 -0.15
18 0.17
19 -0.24
2 -0.18
20 0.24
21 -0.18
22 0.47
23 -0.05
24 0.42
25 -0.14
26 -0.15
27 -0.15
28 0.18
29 -0.15
3 -0.16
30 0.18
4 -0.22
40 0.15
41 0.15
42 0.15
43 0.15
44 0.15
45 0.06
46 0.15
49 0.15
5 0.33
50 0.15
51 0.15
6 -0.57
7 -0.51
8 0.14
9 -0.14

> <PUBCHEM_EFFECTIVE_ROTOR_COUNT>
6

> <PUBCHEM_PHARMACOPHORE_FEATURES>
7
1 7 acceptor
3 5 6 20 cation
4 8 10 11 12 hydrophobe
5 3 5 20 21 23 rings
5 5 6 18 19 20 rings
6 25 26 27 28 29 30 rings
6 9 13 14 15 16 17 rings

> <PUBCHEM_HEAVY_ATOM_COUNT>
30

> <PUBCHEM_ATOM_DEF_STEREO_COUNT>
0

> <PUBCHEM_ATOM_UDEF_STEREO_COUNT>
0

> <PUBCHEM_BOND_DEF_STEREO_COUNT>
0

> <PUBCHEM_BOND_UDEF_STEREO_COUNT>
1

> <PUBCHEM_ISOTOPIC_ATOM_COUNT>
0

> <PUBCHEM_COMPONENT_COUNT>
1

> <PUBCHEM_CACTVS_TAUTO_COUNT>
-1

> <PUBCHEM_CONFORMER_ID>
0941386400000001

> <PUBCHEM_MMFF94_ENERGY>
82.5203

> <PUBCHEM_FEATURE_SELFOVERLAP>
35.774

> <PUBCHEM_SHAPE_FINGERPRINT>
10190108 129 18052544567641408251
10483366 6 18337965498241266542
10675989 125 18343864420135760040
107951 10 18196378245324819172
10937287 8 18192709166633611716
11045515 52 17690277106225422515
11049842 53 18339062895991025608
11578080 2 18115330916007700339
12124843 1 18201734967392278076
12156800 1 13394918689239563228
12166972 35 17975981964350799327
12173636 292 18050277364903010725
131258 43 17842011983213722326
13383668 262 18041555957658821163
133893 2 18270694056189999089
13590594 115 17761497993341905043
13726171 33 17977677733208614513
13941206 138 18337678645105527840
14068700 675 17840018546661224882
14114211 68 18337691774788864589
14931854 50 18201736041439686348
15082195 135 18265029407240275045
15163728 17 18260274083103772493
151778 21 18335135423128884276
15439362 3 18337669724553932321
15463212 79 17683793685847082968
15975801 100 15436228748095949036
16988056 13 18048300168187395925
1813 80 17977934696848658067
18681886 176 18053936265129543919
20642791 178 18338793425220923635
20771845 171 18187357736647091613
21133410 230 17756461448319014034
21860390 5 18270393872209744054
22907989 373 17687452877602494431
23366157 5 18337099069645135179
23559900 14 18199456676415482067
24771750 20 18409735049580083055
27425 322 17167863101552007121
3298306 158 18271520996118292891
338550 245 18054505812131146345
354706 35 17624402478656495284
4046055 25 17624405386265374031
4058900 60 18335149716685145292
4394409 98 18409733989340261204
474 4 18409163307749511095
474144 1 18270679757895827422
513532 50 16701721813739704496
5265222 85 18126550452864259888
6376802 90 17906461283626577156
6608658 132 17547595685961238302
9981440 41 18265329688981534155

> <PUBCHEM_SHAPE_MULTIPOLES>
604.16
10.74
6.77
1.74
13.94
5.3
0.26
-10.4
-5.5
-9.84
-0.42
-1.32
-0.83
-1.2

> <PUBCHEM_SHAPE_SELFOVERLAP>
1284.421

> <PUBCHEM_SHAPE_VOLUME>
342.9

> <PUBCHEM_COORDINATE_TYPE>
2
5
10

