155524887
  -OEChem-06302411133D

 61 65  0     0  0  0  0  0  0999 V2000
   -7.0783    0.9164    2.0196 Cl  0  0  0  0  0  0  0  0  0  0  0  0
   -8.3917   -0.1918   -0.7230 Cl  0  0  0  0  0  0  0  0  0  0  0  0
    4.0500    5.2729   -0.0610 S   0  0  0  0  0  0  0  0  0  0  0  0
   -1.9352    1.1497   -0.1165 O   0  0  0  0  0  0  0  0  0  0  0  0
    3.6191    2.5166    0.3094 N   0  0  0  0  0  0  0  0  0  0  0  0
    1.8961    3.8809   -0.0920 N   0  0  0  0  0  0  0  0  0  0  0  0
   -0.5432    1.1239    0.0464 N   0  0  0  0  0  0  0  0  0  0  0  0
    2.4882   -2.7733   -1.6788 C   0  0  0  0  0  0  0  0  0  0  0  0
    2.0385   -3.9011    1.1305 C   0  0  0  0  0  0  0  0  0  0  0  0
    2.7246   -4.2497   -1.2905 C   0  0  0  0  0  0  0  0  0  0  0  0
    1.8008   -4.6989   -0.1710 C   0  0  0  0  0  0  0  0  0  0  0  0
    2.3719   -1.8743   -0.4412 C   0  0  0  0  0  0  0  0  0  0  0  0
    2.1554   -2.3959    0.8582 C   0  0  0  0  0  0  0  0  0  0  0  0
    3.6777   -2.3632   -2.5797 C   0  0  0  0  0  0  0  0  0  0  0  0
    1.1888   -2.6489   -2.5050 C   0  0  0  0  0  0  0  0  0  0  0  0
    3.3381   -4.3834    1.8125 C   0  0  0  0  0  0  0  0  0  0  0  0
    0.8495   -4.2273    2.0657 C   0  0  0  0  0  0  0  0  0  0  0  0
    2.4442   -0.4722   -0.6010 C   0  0  0  0  0  0  0  0  0  0  0  0
    2.0831   -1.4936    1.9432 C   0  0  0  0  0  0  0  0  0  0  0  0
    2.3498    0.3965    0.4846 C   0  0  0  0  0  0  0  0  0  0  0  0
    2.1775   -0.1155    1.7597 C   0  0  0  0  0  0  0  0  0  0  0  0
    2.4273    1.8158    0.2817 C   0  0  0  0  0  0  0  0  0  0  0  0
    1.3438    2.6431    0.0341 C   0  0  0  0  0  0  0  0  0  0  0  0
    3.2397    3.7431    0.0803 C   0  0  0  0  0  0  0  0  0  0  0  0
   -0.0470    2.3371   -0.0788 C   0  0  0  0  0  0  0  0  0  0  0  0
    1.4563    5.1601   -0.3359 C   0  0  0  0  0  0  0  0  0  0  0  0
    2.4762    6.0351   -0.3542 C   0  0  0  0  0  0  0  0  0  0  0  0
   -2.4205   -0.1766    0.0269 C   0  0  0  0  0  0  0  0  0  0  0  0
   -3.9112   -0.1734   -0.1439 C   0  0  0  0  0  0  0  0  0  0  0  0
   -4.7305    0.3065    0.8778 C   0  0  0  0  0  0  0  0  0  0  0  0
   -4.4775   -0.6510   -1.3258 C   0  0  0  0  0  0  0  0  0  0  0  0
   -6.1160    0.3091    0.7177 C   0  0  0  0  0  0  0  0  0  0  0  0
   -5.8632   -0.6485   -1.4860 C   0  0  0  0  0  0  0  0  0  0  0  0
   -6.6825   -0.1685   -0.4642 C   0  0  0  0  0  0  0  0  0  0  0  0
    3.7668   -4.4005   -0.9819 H   0  0  0  0  0  0  0  0  0  0  0  0
    2.5758   -4.8988   -2.1633 H   0  0  0  0  0  0  0  0  0  0  0  0
    0.7586   -4.5932   -0.4978 H   0  0  0  0  0  0  0  0  0  0  0  0
    1.9487   -5.7714    0.0105 H   0  0  0  0  0  0  0  0  0  0  0  0
    3.8121   -3.0783   -3.4001 H   0  0  0  0  0  0  0  0  0  0  0  0
    4.6134   -2.3294   -2.0090 H   0  0  0  0  0  0  0  0  0  0  0  0
    3.5365   -1.3801   -3.0408 H   0  0  0  0  0  0  0  0  0  0  0  0
    1.2006   -3.3274   -3.3656 H   0  0  0  0  0  0  0  0  0  0  0  0
    1.0550   -1.6327   -2.8946 H   0  0  0  0  0  0  0  0  0  0  0  0
    0.2994   -2.8788   -1.9080 H   0  0  0  0  0  0  0  0  0  0  0  0
    4.2272   -4.1380    1.2213 H   0  0  0  0  0  0  0  0  0  0  0  0
    3.4727   -3.9188    2.7965 H   0  0  0  0  0  0  0  0  0  0  0  0
    3.3253   -5.4686    1.9651 H   0  0  0  0  0  0  0  0  0  0  0  0
   -0.0865   -3.8090    1.6767 H   0  0  0  0  0  0  0  0  0  0  0  0
    0.9912   -3.8340    3.0778 H   0  0  0  0  0  0  0  0  0  0  0  0
    0.7156   -5.3111    2.1655 H   0  0  0  0  0  0  0  0  0  0  0  0
    2.5686   -0.0477   -1.5954 H   0  0  0  0  0  0  0  0  0  0  0  0
    1.9563   -1.8577    2.9596 H   0  0  0  0  0  0  0  0  0  0  0  0
    2.1098    0.5400    2.6245 H   0  0  0  0  0  0  0  0  0  0  0  0
   -0.7395    3.1735   -0.2834 H   0  0  0  0  0  0  0  0  0  0  0  0
    0.4109    5.3813   -0.4872 H   0  0  0  0  0  0  0  0  0  0  0  0
    2.3833    7.0981   -0.5262 H   0  0  0  0  0  0  0  0  0  0  0  0
   -2.1625   -0.5654    1.0202 H   0  0  0  0  0  0  0  0  0  0  0  0
   -1.9442   -0.8259   -0.7185 H   0  0  0  0  0  0  0  0  0  0  0  0
   -4.2822    0.6781    1.7967 H   0  0  0  0  0  0  0  0  0  0  0  0
   -3.8511   -1.0262   -2.1307 H   0  0  0  0  0  0  0  0  0  0  0  0
   -6.2875   -1.0240   -2.4138 H   0  0  0  0  0  0  0  0  0  0  0  0
  1 32  1  0  0  0  0
  2 34  1  0  0  0  0
  3 24  1  0  0  0  0
  3 27  1  0  0  0  0
  4  7  1  0  0  0  0
  4 28  1  0  0  0  0
  5 22  1  0  0  0  0
  5 24  2  0  0  0  0
  6 23  1  0  0  0  0
  6 24  1  0  0  0  0
  6 26  1  0  0  0  0
  7 25  2  0  0  0  0
  8 10  1  0  0  0  0
  8 12  1  0  0  0  0
  8 14  1  0  0  0  0
  8 15  1  0  0  0  0
  9 11  1  0  0  0  0
  9 13  1  0  0  0  0
  9 16  1  0  0  0  0
  9 17  1  0  0  0  0
 10 11  1  0  0  0  0
 10 35  1  0  0  0  0
 10 36  1  0  0  0  0
 11 37  1  0  0  0  0
 11 38  1  0  0  0  0
 12 13  2  0  0  0  0
 12 18  1  0  0  0  0
 13 19  1  0  0  0  0
 14 39  1  0  0  0  0
 14 40  1  0  0  0  0
 14 41  1  0  0  0  0
 15 42  1  0  0  0  0
 15 43  1  0  0  0  0
 15 44  1  0  0  0  0
 16 45  1  0  0  0  0
 16 46  1  0  0  0  0
 16 47  1  0  0  0  0
 17 48  1  0  0  0  0
 17 49  1  0  0  0  0
 17 50  1  0  0  0  0
 18 20  2  0  0  0  0
 18 51  1  0  0  0  0
 19 21  2  0  0  0  0
 19 52  1  0  0  0  0
 20 21  1  0  0  0  0
 20 22  1  0  0  0  0
 21 53  1  0  0  0  0
 22 23  2  0  0  0  0
 23 25  1  0  0  0  0
 25 54  1  0  0  0  0
 26 27  2  0  0  0  0
 26 55  1  0  0  0  0
 27 56  1  0  0  0  0
 28 29  1  0  0  0  0
 28 57  1  0  0  0  0
 28 58  1  0  0  0  0
 29 30  2  0  0  0  0
 29 31  1  0  0  0  0
 30 32  1  0  0  0  0
 30 59  1  0  0  0  0
 31 33  2  0  0  0  0
 31 60  1  0  0  0  0
 32 34  2  0  0  0  0
 33 34  1  0  0  0  0
 33 61  1  0  0  0  0
M  END
> <PUBCHEM_COMPOUND_CID>
155524887

> <PUBCHEM_CONFORMER_RMSD>
1.2

> <PUBCHEM_CONFORMER_DIVERSEORDER>
2
12
95
27
7
22
46
102
66
92
45
83
49
21
29
34
69
91
50
99
100
10
13
81
78
6
31
15
61
60
24
76
44
90
41
42
11
77
75
93
5
59
9
97
1
43
30
88
26
64
74
79
17
55
52
19
18
87
73
3
20
16
40
38
37
47
14
101
51
103
8
94
58
86
36
28
23
32
67
98
82
72
68
71
63
39
48
4
96
56
62
84
85
54
80
89
65
33
70
57
53
25
35

> <PUBCHEM_MMFF94_PARTIAL_CHARGES>
37
1 -0.18
12 -0.14
13 -0.14
18 -0.15
19 -0.15
2 -0.18
20 0.05
21 -0.15
22 0.17
23 -0.24
24 0.24
25 0.47
26 -0.18
27 -0.05
28 0.42
29 -0.14
3 -0.16
30 -0.15
31 -0.15
32 0.18
33 -0.15
34 0.18
4 -0.22
5 -0.57
51 0.15
52 0.15
53 0.15
54 0.06
55 0.15
56 0.15
59 0.15
6 0.33
60 0.15
61 0.15
7 -0.51
8 0.14
9 0.14

> <PUBCHEM_EFFECTIVE_ROTOR_COUNT>
5.8

> <PUBCHEM_PHARMACOPHORE_FEATURES>
9
1 7 acceptor
3 5 6 24 cation
3 8 14 15 hydrophobe
3 9 16 17 hydrophobe
5 3 6 24 26 27 rings
5 5 6 22 23 24 rings
6 12 13 18 19 20 21 rings
6 29 30 31 32 33 34 rings
6 8 9 10 11 12 13 rings

> <PUBCHEM_HEAVY_ATOM_COUNT>
34

> <PUBCHEM_ATOM_DEF_STEREO_COUNT>
0

> <PUBCHEM_ATOM_UDEF_STEREO_COUNT>
0

> <PUBCHEM_BOND_DEF_STEREO_COUNT>
1

> <PUBCHEM_BOND_UDEF_STEREO_COUNT>
0

> <PUBCHEM_ISOTOPIC_ATOM_COUNT>
0

> <PUBCHEM_COMPONENT_COUNT>
1

> <PUBCHEM_CACTVS_TAUTO_COUNT>
-1

> <PUBCHEM_CONFORMER_ID>
09451F1700000002

> <PUBCHEM_MMFF94_ENERGY>
99.8512

> <PUBCHEM_FEATURE_SELFOVERLAP>
45.944

> <PUBCHEM_SHAPE_FINGERPRINT>
10483366 6 18271824431985475404
10554248 39 18272079484608860629
10675989 125 18340209686735229641
11181472 205 18341895178896360701
11421498 54 18048891693138889070
114674 6 18334298655940844539
11505856 67 16673606494180685085
11991303 11 17684933892332674060
12107183 9 17984151362174466049
12522641 68 17692819598222247956
12677640 9 16535672795290241045
12788726 201 17399535432699338720
13165054 189 18196652011294266856
13692114 37 17767111378211707616
13785724 45 18125728881375390079
14747282 140 14508158359649622123
15001296 14 18411133641915333647
15324884 4 16692983755086564758
15400415 2 18047465914410045181
15439362 3 18196093472420854372
15484559 13 18338801238130600956
15664445 248 18411422786943492584
16993438 75 17401486442809907538
17818456 19 17559403448948362585
1813 80 18269835307660141347
19319366 153 18269269243718670249
19427546 62 18048032162312826317
20028762 73 18342735265128580904
21133410 52 18125689449513923550
21133410 58 18265030472476716279
21772528 278 17902791104331446813
23845131 108 18045778154874661241
255183 451 18129669573466425447
3178227 256 18261104227611218936
38695281 34 18123469642161981140
394071 54 18335988644743103145
4058900 60 18193842771659380117
44280117 145 17400640421150487218
504843 32 17685493547512921948
5309563 4 18120927313791509131
57359948 33 17095514064260893767
6057620 51 18054221314293680197
613672 6 17835497350700562119
6700243 42 17339018342982933582
86090 222 17458927976131198155
9658208 31 17693937805863749120

> <PUBCHEM_SHAPE_MULTIPOLES>
686.48
14.15
8.72
1.98
47.51
6.78
0.19
2.22
0.56
-18.98
-0.15
-0.46
-2.65
-0.77

> <PUBCHEM_SHAPE_SELFOVERLAP>
1470.591

> <PUBCHEM_SHAPE_VOLUME>
387.4

> <PUBCHEM_COORDINATE_TYPE>
2
5
10

