157888353
  -OEChem-06302411133D

 42 45  0     0  0  0  0  0  0999 V2000
   -5.1833   -0.2480   -0.6560 Cl  0  0  0  0  0  0  0  0  0  0  0  0
   -4.9683    2.7637   -1.8206 Cl  0  0  0  0  0  0  0  0  0  0  0  0
    4.6007    1.6354   -2.1006 S   0  0  0  0  0  0  0  0  0  0  0  0
    0.2275    0.4906    1.5846 O   0  0  0  0  0  0  0  0  0  0  0  0
    3.5076    0.7604    0.0483 N   0  0  0  0  0  0  0  0  0  0  0  0
    2.5203   -0.2173   -1.7012 N   0  0  0  0  0  0  0  0  0  0  0  0
    1.1422    0.0401    2.5464 N   0  0  0  0  0  0  0  0  0  0  0  0
    1.9676   -0.6544   -0.5113 C   0  0  0  0  0  0  0  0  0  0  0  0
    2.5655   -0.0603    0.5885 C   0  0  0  0  0  0  0  0  0  0  0  0
    0.8970   -1.6097   -0.4505 C   0  0  0  0  0  0  0  0  0  0  0  0
    3.4335    0.6249   -1.3046 C   0  0  0  0  0  0  0  0  0  0  0  0
    4.4590    1.6404    0.5062 C   0  0  0  0  0  0  0  0  0  0  0  0
   -0.3234   -1.3294   -1.0650 C   0  0  0  0  0  0  0  0  0  0  0  0
    1.0775   -2.8174    0.2235 C   0  0  0  0  0  0  0  0  0  0  0  0
    2.3035   -0.2217    1.9835 C   0  0  0  0  0  0  0  0  0  0  0  0
   -1.1830   -3.4648   -0.3313 C   0  0  0  0  0  0  0  0  0  0  0  0
    5.1387    2.2009   -0.5086 C   0  0  0  0  0  0  0  0  0  0  0  0
   -1.3635   -2.2570   -1.0054 C   0  0  0  0  0  0  0  0  0  0  0  0
    0.0374   -3.7450    0.2831 C   0  0  0  0  0  0  0  0  0  0  0  0
   -2.2949   -4.4568   -0.2676 C   0  0  0  0  0  0  0  0  0  0  0  0
   -2.0002    1.2427    1.2268 C   0  0  0  0  0  0  0  0  0  0  0  0
   -1.0038    0.7583    2.2386 C   0  0  0  0  0  0  0  0  0  0  0  0
   -3.0185    0.3963    0.7881 C   0  0  0  0  0  0  0  0  0  0  0  0
   -1.9080    2.5409    0.7254 C   0  0  0  0  0  0  0  0  0  0  0  0
   -3.9444    0.8481   -0.1521 C   0  0  0  0  0  0  0  0  0  0  0  0
   -2.8341    2.9929   -0.2148 C   0  0  0  0  0  0  0  0  0  0  0  0
   -3.8523    2.1464   -0.6535 C   0  0  0  0  0  0  0  0  0  0  0  0
    4.5996    1.8209    1.5610 H   0  0  0  0  0  0  0  0  0  0  0  0
   -0.4816   -0.3919   -1.5930 H   0  0  0  0  0  0  0  0  0  0  0  0
    2.0229   -3.0584    0.7040 H   0  0  0  0  0  0  0  0  0  0  0  0
    3.1354   -0.5173    2.6430 H   0  0  0  0  0  0  0  0  0  0  0  0
    5.9352    2.9237   -0.4021 H   0  0  0  0  0  0  0  0  0  0  0  0
   -2.3096   -2.0280   -1.4884 H   0  0  0  0  0  0  0  0  0  0  0  0
    0.1900   -4.6822    0.8118 H   0  0  0  0  0  0  0  0  0  0  0  0
   -2.9267   -4.2565    0.6036 H   0  0  0  0  0  0  0  0  0  0  0  0
   -1.9101   -5.4796   -0.1942 H   0  0  0  0  0  0  0  0  0  0  0  0
   -2.9153   -4.4117   -1.1692 H   0  0  0  0  0  0  0  0  0  0  0  0
   -0.8599    1.5235    3.0118 H   0  0  0  0  0  0  0  0  0  0  0  0
   -1.3633   -0.1529    2.7328 H   0  0  0  0  0  0  0  0  0  0  0  0
   -3.0887   -0.6149    1.1829 H   0  0  0  0  0  0  0  0  0  0  0  0
   -1.1180    3.2082    1.0596 H   0  0  0  0  0  0  0  0  0  0  0  0
   -2.7469    4.0075   -0.5954 H   0  0  0  0  0  0  0  0  0  0  0  0
  1 25  1  0  0  0  0
  2 27  1  0  0  0  0
  3 11  1  0  0  0  0
  3 17  1  0  0  0  0
  4  7  1  0  0  0  0
  4 22  1  0  0  0  0
  5  9  1  0  0  0  0
  5 11  1  0  0  0  0
  5 12  1  0  0  0  0
  6  8  1  0  0  0  0
  6 11  2  0  0  0  0
  7 15  2  0  0  0  0
  8  9  2  0  0  0  0
  8 10  1  0  0  0  0
  9 15  1  0  0  0  0
 10 13  2  0  0  0  0
 10 14  1  0  0  0  0
 12 17  2  0  0  0  0
 12 28  1  0  0  0  0
 13 18  1  0  0  0  0
 13 29  1  0  0  0  0
 14 19  2  0  0  0  0
 14 30  1  0  0  0  0
 15 31  1  0  0  0  0
 16 18  2  0  0  0  0
 16 19  1  0  0  0  0
 16 20  1  0  0  0  0
 17 32  1  0  0  0  0
 18 33  1  0  0  0  0
 19 34  1  0  0  0  0
 20 35  1  0  0  0  0
 20 36  1  0  0  0  0
 20 37  1  0  0  0  0
 21 22  1  0  0  0  0
 21 23  2  0  0  0  0
 21 24  1  0  0  0  0
 22 38  1  0  0  0  0
 22 39  1  0  0  0  0
 23 25  1  0  0  0  0
 23 40  1  0  0  0  0
 24 26  2  0  0  0  0
 24 41  1  0  0  0  0
 25 27  2  0  0  0  0
 26 27  1  0  0  0  0
 26 42  1  0  0  0  0
M  END
> <PUBCHEM_COMPOUND_CID>
157888353

> <PUBCHEM_CONFORMER_RMSD>
0.8

> <PUBCHEM_CONFORMER_DIVERSEORDER>
1
155
63
127
73
150
29
112
175
123
18
49
169
95
126
32
48
122
35
129
131
100
170
47
38
55
6
22
165
174
109
120
151
64
34
87
24
9
61
94
10
149
146
116
78
3
121
28
26
59
85
110
81
140
60
130
167
56
104
142
88
11
52
145
98
5
58
42
157
156
17
27
133
160
134
4
124
16
103
25
139
136
19
36
2
44
163
30
66
57
69
71
135
132
14
138
67
40
82
65
141
115
39
172
158
148
102
125
68
20
83
76
166
90
143
164
173
7
86
93
8
114
23
168
154
72
43
97
159
171
62
118
137
92
70
15
21
153
53
105
41
77
147
106
46
12
51
13
50
161
74
79
96
54
162
111
91
45
80
128
113
75
89
101
108
84
119
117
33
107
152
37
144
31
99

> <PUBCHEM_MMFF94_PARTIAL_CHARGES>
37
1 -0.18
10 0.05
11 0.24
12 -0.18
13 -0.15
14 -0.15
15 0.47
16 -0.14
17 -0.05
18 -0.15
19 -0.15
2 -0.18
20 0.14
21 -0.14
22 0.42
23 -0.15
24 -0.15
25 0.18
26 -0.15
27 0.18
28 0.15
29 0.15
3 -0.16
30 0.15
31 0.06
32 0.15
33 0.15
34 0.15
4 -0.22
40 0.15
41 0.15
42 0.15
5 0.33
6 -0.57
7 -0.51
8 0.17
9 -0.24

> <PUBCHEM_EFFECTIVE_ROTOR_COUNT>
5

> <PUBCHEM_PHARMACOPHORE_FEATURES>
6
1 7 acceptor
3 5 6 11 cation
5 3 5 11 12 17 rings
5 5 6 8 9 11 rings
6 10 13 14 16 18 19 rings
6 21 23 24 25 26 27 rings

> <PUBCHEM_HEAVY_ATOM_COUNT>
27

> <PUBCHEM_ATOM_DEF_STEREO_COUNT>
0

> <PUBCHEM_ATOM_UDEF_STEREO_COUNT>
0

> <PUBCHEM_BOND_DEF_STEREO_COUNT>
1

> <PUBCHEM_BOND_UDEF_STEREO_COUNT>
0

> <PUBCHEM_ISOTOPIC_ATOM_COUNT>
0

> <PUBCHEM_COMPONENT_COUNT>
1

> <PUBCHEM_CACTVS_TAUTO_COUNT>
-1

> <PUBCHEM_CONFORMER_ID>
09692F6100000001

> <PUBCHEM_MMFF94_ENERGY>
73.2752

> <PUBCHEM_FEATURE_SELFOVERLAP>
30.7

> <PUBCHEM_SHAPE_FINGERPRINT>
10498660 4 18341894065339047765
10759866 29 18408600353205950986
10816530 23 17898546727824504821
10928967 22 14189283808136507085
11285246 1 16769613238166738046
11370993 70 18338797806177073637
11421498 54 17825945098605538570
11582403 64 17822284661008046737
11640471 11 17968093148825430898
12788726 201 18118679061383556874
13134695 92 17468488010106178530
13149001 5 17774720982313255544
13402501 40 17773877678443316739
13583140 156 18187944914479310152
13617811 41 18267284467008231157
13726171 33 18409454682948281497
13947920 24 18270406121208279304
13965767 371 17967802813331176108
13994607 96 17462033112520950332
14114211 68 18199485293908630687
14114211 80 18130520673604111243
14468879 13 18115318765355529801
14787075 74 18059851796752677989
15163728 17 18190195510979887573
15324115 91 18053650396632573093
15463212 79 18334574698073842394
15475509 35 11597709742209333957
15848702 105 18342741818673343346
16114785 44 15470770292835660458
17357779 13 17415845953115998450
17492 54 18343299288775846815
21304303 282 18116702101269925106
21452121 99 18272079526571758418
21641784 216 17761513768904580852
21860390 5 17314233254689832028
22393880 68 18126854797950704813
23227448 37 18197221562354439524
23419403 2 10941733313490090842
23559900 14 17905598913947684771
238 59 18125169233782470675
3052486 1 18267851955702243419
4409770 3 17774166845964969542
469060 322 17976283522510255347
513532 50 15882604020759626509
58260988 393 17531821259009020833
6669772 16 17416656156337398066
7808743 9 18338233876775858614

> <PUBCHEM_SHAPE_MULTIPOLES>
542.42
9.6
4.67
1.97
1
4.73
-0.6
-9.84
4.45
-3.64
1.18
0.77
-0.81
-0.3

> <PUBCHEM_SHAPE_SELFOVERLAP>
1162.565

> <PUBCHEM_SHAPE_VOLUME>
304.1

> <PUBCHEM_COORDINATE_TYPE>
2
5
10

