16451671
  -OEChem-06302411133D

 35 38  0     0  0  0  0  0  0999 V2000
   -6.0202   -0.5210   -2.5873 Cl  0  0  0  0  0  0  0  0  0  0  0  0
   -6.7713   -2.6594   -0.2766 Cl  0  0  0  0  0  0  0  0  0  0  0  0
    8.2514   -1.3622   -0.3378 Cl  0  0  0  0  0  0  0  0  0  0  0  0
   -0.8083    1.7694   -1.0503 S   0  0  0  0  0  0  0  0  0  0  0  0
    0.5866    0.7184    0.8271 N   0  0  0  0  0  0  0  0  0  0  0  0
    1.8639    0.8937   -0.9969 N   0  0  0  0  0  0  0  0  0  0  0  0
   -1.5152    1.4800    0.5610 C   0  0  0  0  0  0  0  0  0  0  0  0
   -2.9291    1.8449    0.8420 C   0  0  0  0  0  0  0  0  0  0  0  0
    0.6876    1.1034   -0.4743 C   0  0  0  0  0  0  0  0  0  0  0  0
   -0.6380    0.9230    1.4173 C   0  0  0  0  0  0  0  0  0  0  0  0
    2.5698    0.3309    0.0504 C   0  0  0  0  0  0  0  0  0  0  0  0
    1.7961    0.2123    1.1934 C   0  0  0  0  0  0  0  0  0  0  0  0
   -3.8933    0.7239    0.5471 C   0  0  0  0  0  0  0  0  0  0  0  0
    3.9377   -0.0773   -0.0438 C   0  0  0  0  0  0  0  0  0  0  0  0
   -4.4591    0.6069   -0.7225 C   0  0  0  0  0  0  0  0  0  0  0  0
   -4.2181   -0.1971    1.5431 C   0  0  0  0  0  0  0  0  0  0  0  0
    4.4038   -1.1388    0.7321 C   0  0  0  0  0  0  0  0  0  0  0  0
    4.8055    0.5866   -0.9108 C   0  0  0  0  0  0  0  0  0  0  0  0
   -5.3498   -0.4314   -0.9961 C   0  0  0  0  0  0  0  0  0  0  0  0
   -5.1087   -1.2351    1.2696 C   0  0  0  0  0  0  0  0  0  0  0  0
   -5.6744   -1.3524    0.0001 C   0  0  0  0  0  0  0  0  0  0  0  0
    5.7377   -1.5361    0.6411 C   0  0  0  0  0  0  0  0  0  0  0  0
    6.1396    0.1892   -1.0019 C   0  0  0  0  0  0  0  0  0  0  0  0
    6.6056   -0.8721   -0.2258 C   0  0  0  0  0  0  0  0  0  0  0  0
   -3.2185    2.7442    0.2824 H   0  0  0  0  0  0  0  0  0  0  0  0
   -3.0334    2.1349    1.8967 H   0  0  0  0  0  0  0  0  0  0  0  0
   -0.8129    0.6489    2.4469 H   0  0  0  0  0  0  0  0  0  0  0  0
    1.9901   -0.1622    2.1895 H   0  0  0  0  0  0  0  0  0  0  0  0
   -4.2054    1.3283   -1.4960 H   0  0  0  0  0  0  0  0  0  0  0  0
   -3.7833   -0.1177    2.5360 H   0  0  0  0  0  0  0  0  0  0  0  0
    3.7522   -1.6864    1.4084 H   0  0  0  0  0  0  0  0  0  0  0  0
    4.4655    1.4192   -1.5221 H   0  0  0  0  0  0  0  0  0  0  0  0
   -5.3503   -1.9440    2.0576 H   0  0  0  0  0  0  0  0  0  0  0  0
    6.0868   -2.3665    1.2495 H   0  0  0  0  0  0  0  0  0  0  0  0
    6.8049    0.7163   -1.6810 H   0  0  0  0  0  0  0  0  0  0  0  0
  1 19  1  0  0  0  0
  2 21  1  0  0  0  0
  3 24  1  0  0  0  0
  4  7  1  0  0  0  0
  4  9  1  0  0  0  0
  5  9  1  0  0  0  0
  5 10  1  0  0  0  0
  5 12  1  0  0  0  0
  6  9  2  0  0  0  0
  6 11  1  0  0  0  0
  7  8  1  0  0  0  0
  7 10  2  0  0  0  0
  8 13  1  0  0  0  0
  8 25  1  0  0  0  0
  8 26  1  0  0  0  0
 10 27  1  0  0  0  0
 11 12  2  0  0  0  0
 11 14  1  0  0  0  0
 12 28  1  0  0  0  0
 13 15  2  0  0  0  0
 13 16  1  0  0  0  0
 14 17  2  0  0  0  0
 14 18  1  0  0  0  0
 15 19  1  0  0  0  0
 15 29  1  0  0  0  0
 16 20  2  0  0  0  0
 16 30  1  0  0  0  0
 17 22  1  0  0  0  0
 17 31  1  0  0  0  0
 18 23  2  0  0  0  0
 18 32  1  0  0  0  0
 19 21  2  0  0  0  0
 20 21  1  0  0  0  0
 20 33  1  0  0  0  0
 22 24  2  0  0  0  0
 22 34  1  0  0  0  0
 23 24  1  0  0  0  0
 23 35  1  0  0  0  0
M  END
> <PUBCHEM_COMPOUND_CID>
16451671

> <PUBCHEM_CONFORMER_RMSD>
0.6

> <PUBCHEM_CONFORMER_DIVERSEORDER>
3
37
32
13
38
21
19
12
35
31
5
18
16
6
17
30
15
33
29
11
14
39
34
28
25
20
27
40
4
22
7
41
23
26
24
36
2
10
8
1
9

> <PUBCHEM_MMFF94_PARTIAL_CHARGES>
33
1 -0.18
10 -0.18
11 0.17
12 -0.3
13 -0.14
14 0.05
15 -0.15
16 -0.15
17 -0.15
18 -0.15
19 0.18
2 -0.18
20 -0.15
21 0.18
22 -0.15
23 -0.15
24 0.18
27 0.15
28 0.15
29 0.15
3 -0.18
30 0.15
31 0.15
32 0.15
33 0.15
34 0.15
35 0.15
4 -0.16
5 0.33
6 -0.57
7 -0.04
8 0.28
9 0.24

> <PUBCHEM_EFFECTIVE_ROTOR_COUNT>
3

> <PUBCHEM_PHARMACOPHORE_FEATURES>
5
3 5 6 9 cation
5 4 5 7 9 10 rings
5 5 6 9 11 12 rings
6 13 15 16 19 20 21 rings
6 14 17 18 22 23 24 rings

> <PUBCHEM_HEAVY_ATOM_COUNT>
24

> <PUBCHEM_ATOM_DEF_STEREO_COUNT>
0

> <PUBCHEM_ATOM_UDEF_STEREO_COUNT>
0

> <PUBCHEM_BOND_DEF_STEREO_COUNT>
0

> <PUBCHEM_BOND_UDEF_STEREO_COUNT>
0

> <PUBCHEM_ISOTOPIC_ATOM_COUNT>
0

> <PUBCHEM_COMPONENT_COUNT>
1

> <PUBCHEM_CACTVS_TAUTO_COUNT>
1

> <PUBCHEM_CONFORMER_ID>
00FB085700000003

> <PUBCHEM_MMFF94_ENERGY>
58.0667

> <PUBCHEM_FEATURE_SELFOVERLAP>
25.625

> <PUBCHEM_SHAPE_FINGERPRINT>
10 15 12247680487253758399
10100884 174 14187850152548445981
105312 117 13262403258542360921
10533779 1 8141269497207275599
10554248 39 14635153383456507970
10670039 82 14129052613169976079
10906281 52 11455882599191406864
11089746 13 13118288109263413852
11135926 11 17967816003228801387
11200772 48 15936414459188041507
11315181 36 18412266121063117089
11475781 23 13117999972982487346
11578821 258 11964263790970263398
11963148 33 18343016666943791686
12236239 1 18408891715772240188
12539765 74 9511167579046497752
12596602 18 14692569927033321887
12633257 1 15840991195646833153
12670543 26 16081085957160980968
12838863 1 15983957390072116111
13167372 99 9943808872492869690
13288520 33 18412547596145192873
13668630 136 18340772551173842358
13690498 29 17095808840983896107
13782708 43 18342459193267863586
13914758 101 13623523538071034096
14211702 104 18129952178336480982
14849402 71 14620215516864852250
14931854 50 17676757765339532019
15064986 266 17604156995546009041
15183329 4 16443059495628900395
15188451 53 16343411904514637749
15348495 7 14405176296272832914
15352257 5 17346605136586693342
15510800 12 18272101508299359983
15716309 27 17775005686793830529
15876981 60 18335431114379715485
17093844 174 16916787340890502737
17780758 139 15913612761829914659
17913733 40 12895081716696253021
18222031 100 18260542333866031968
18927931 339 18060423499992178453
19841028 212 17272832459461034255
20028762 73 18343586248152280590
20105231 36 14908187448160857348
20281389 69 9079112250141404263
20567600 247 18335137583571443490
21054139 6 18334014978099689178
21095123 145 17132112451542783692
21150785 3 18040719186243436412
21637258 2 18273490173946019153
21756936 100 9511456719775180345
21781051 124 17060353924725699038
22122407 14 9799395768116077574
22224240 67 13758356666017420453
22393880 68 16950557831294083313
2303208 19 16486982748050607820
23081809 10 18410583859862046136
23198884 109 15791443834423898027
23389318 12 18201711908029018812
23402539 116 18187370891399092241
23522609 53 18053982586114539496
23559900 14 18114747147752241625
23569914 152 15942558332306082738
23569943 247 17551247169116165886
23576562 1 14708073109720407550
23845131 108 13466516459742033314
270888 7 8430056252164464627
2838139 119 11169912805423339895
3009799 131 15936412234579695204
312425 54 15482682273024989871
3663271 9 12319735860345266965
392239 28 14764346080997382219
397830 11 16414899933700733706
4015057 19 17531826738982030544
406291 66 17844521318320465047
44880568 143 16732980937986647389
465052 167 17917996079428841340
4938544 92 16630257896531930601
5104073 3 14835858213666368374
54039377 194 18261964041614679699
5718773 13 18129939117894815167
5969126 39 17967531242481036908
6328613 192 11097867297755776950
6431902 208 18341896286074587967
7226269 152 8935001460180878295
7495541 125 18131069333890239096
9953998 17 14692854701177645967
999808 66 17704354363822467486

> <PUBCHEM_SHAPE_MULTIPOLES>
493.41
21.52
1.95
1.59
15.78
0.51
0.45
15.74
5.6
-1.96
-0.05
-2.27
-0.04
-0.78

> <PUBCHEM_SHAPE_SELFOVERLAP>
1055.183

> <PUBCHEM_SHAPE_VOLUME>
279.2

> <PUBCHEM_COORDINATE_TYPE>
2
5
10

