16451663
  -OEChem-06302411133D

 35 38  0     0  0  0  0  0  0999 V2000
   -5.6950   -0.1534   -2.5885 Cl  0  0  0  0  0  0  0  0  0  0  0  0
   -6.4933   -2.4876   -0.4932 Cl  0  0  0  0  0  0  0  0  0  0  0  0
   -0.4056    1.8200   -0.8857 S   0  0  0  0  0  0  0  0  0  0  0  0
    0.9707    0.5476    0.8641 N   0  0  0  0  0  0  0  0  0  0  0  0
    2.2394    0.8655   -0.9465 N   0  0  0  0  0  0  0  0  0  0  0  0
   -1.1091    1.3929    0.6962 C   0  0  0  0  0  0  0  0  0  0  0  0
   -2.5094    1.7693    1.0263 C   0  0  0  0  0  0  0  0  0  0  0  0
    1.0738    1.0567   -0.3938 C   0  0  0  0  0  0  0  0  0  0  0  0
   -0.2429    0.7283    1.4841 C   0  0  0  0  0  0  0  0  0  0  0  0
    2.9356    0.1812    0.0326 C   0  0  0  0  0  0  0  0  0  0  0  0
    2.1671   -0.0275    1.1661 C   0  0  0  0  0  0  0  0  0  0  0  0
   -3.5089    0.7117    0.6318 C   0  0  0  0  0  0  0  0  0  0  0  0
    4.2899   -0.2554   -0.1155 C   0  0  0  0  0  0  0  0  0  0  0  0
   -4.0872    0.7378   -0.6373 C   0  0  0  0  0  0  0  0  0  0  0  0
   -3.8541   -0.2937    1.5351 C   0  0  0  0  0  0  0  0  0  0  0  0
    4.7295   -1.4018    0.5468 C   0  0  0  0  0  0  0  0  0  0  0  0
    5.1709    0.4650   -0.9221 C   0  0  0  0  0  0  0  0  0  0  0  0
   -5.0107   -0.2417   -1.0031 C   0  0  0  0  0  0  0  0  0  0  0  0
   -4.7774   -1.2730    1.1694 C   0  0  0  0  0  0  0  0  0  0  0  0
   -5.3556   -1.2471   -0.0997 C   0  0  0  0  0  0  0  0  0  0  0  0
    6.0500   -1.8274    0.4028 C   0  0  0  0  0  0  0  0  0  0  0  0
    6.4914    0.0393   -1.0662 C   0  0  0  0  0  0  0  0  0  0  0  0
    6.9309   -1.1070   -0.4037 C   0  0  0  0  0  0  0  0  0  0  0  0
   -2.5972    1.9561    2.1056 H   0  0  0  0  0  0  0  0  0  0  0  0
   -2.7756    2.7277    0.5614 H   0  0  0  0  0  0  0  0  0  0  0  0
   -0.4185    0.3586    2.4833 H   0  0  0  0  0  0  0  0  0  0  0  0
    2.3569   -0.5045    2.1183 H   0  0  0  0  0  0  0  0  0  0  0  0
   -3.8175    1.5247   -1.3381 H   0  0  0  0  0  0  0  0  0  0  0  0
   -3.4098   -0.3260    2.5264 H   0  0  0  0  0  0  0  0  0  0  0  0
    4.0670   -1.9943    1.1727 H   0  0  0  0  0  0  0  0  0  0  0  0
    4.8518    1.3636   -1.4449 H   0  0  0  0  0  0  0  0  0  0  0  0
   -5.0345   -2.0492    1.8858 H   0  0  0  0  0  0  0  0  0  0  0  0
    6.3920   -2.7215    0.9160 H   0  0  0  0  0  0  0  0  0  0  0  0
    7.1778    0.6004   -1.6935 H   0  0  0  0  0  0  0  0  0  0  0  0
    7.9590   -1.4387   -0.5164 H   0  0  0  0  0  0  0  0  0  0  0  0
  1 18  1  0  0  0  0
  2 20  1  0  0  0  0
  3  6  1  0  0  0  0
  3  8  1  0  0  0  0
  4  8  1  0  0  0  0
  4  9  1  0  0  0  0
  4 11  1  0  0  0  0
  5  8  2  0  0  0  0
  5 10  1  0  0  0  0
  6  7  1  0  0  0  0
  6  9  2  0  0  0  0
  7 12  1  0  0  0  0
  7 24  1  0  0  0  0
  7 25  1  0  0  0  0
  9 26  1  0  0  0  0
 10 11  2  0  0  0  0
 10 13  1  0  0  0  0
 11 27  1  0  0  0  0
 12 14  2  0  0  0  0
 12 15  1  0  0  0  0
 13 16  2  0  0  0  0
 13 17  1  0  0  0  0
 14 18  1  0  0  0  0
 14 28  1  0  0  0  0
 15 19  2  0  0  0  0
 15 29  1  0  0  0  0
 16 21  1  0  0  0  0
 16 30  1  0  0  0  0
 17 22  2  0  0  0  0
 17 31  1  0  0  0  0
 18 20  2  0  0  0  0
 19 20  1  0  0  0  0
 19 32  1  0  0  0  0
 21 23  2  0  0  0  0
 21 33  1  0  0  0  0
 22 23  1  0  0  0  0
 22 34  1  0  0  0  0
 23 35  1  0  0  0  0
M  END
> <PUBCHEM_COMPOUND_CID>
16451663

> <PUBCHEM_CONFORMER_RMSD>
0.6

> <PUBCHEM_CONFORMER_DIVERSEORDER>
3
38
32
37
14
4
36
33
21
11
13
19
12
18
25
30
40
16
17
6
31
29
15
5
34
23
22
24
35
2
20
27
26
28
39
8
10
1
9
7

> <PUBCHEM_MMFF94_PARTIAL_CHARGES>
33
1 -0.18
10 0.17
11 -0.3
12 -0.14
13 0.05
14 -0.15
15 -0.15
16 -0.15
17 -0.15
18 0.18
19 -0.15
2 -0.18
20 0.18
21 -0.15
22 -0.15
23 -0.15
26 0.15
27 0.15
28 0.15
29 0.15
3 -0.16
30 0.15
31 0.15
32 0.15
33 0.15
34 0.15
35 0.15
4 0.33
5 -0.57
6 -0.04
7 0.28
8 0.24
9 -0.18

> <PUBCHEM_EFFECTIVE_ROTOR_COUNT>
3

> <PUBCHEM_PHARMACOPHORE_FEATURES>
5
3 4 5 8 cation
5 3 4 6 8 9 rings
5 4 5 8 10 11 rings
6 12 14 15 18 19 20 rings
6 13 16 17 21 22 23 rings

> <PUBCHEM_HEAVY_ATOM_COUNT>
23

> <PUBCHEM_ATOM_DEF_STEREO_COUNT>
0

> <PUBCHEM_ATOM_UDEF_STEREO_COUNT>
0

> <PUBCHEM_BOND_DEF_STEREO_COUNT>
0

> <PUBCHEM_BOND_UDEF_STEREO_COUNT>
0

> <PUBCHEM_ISOTOPIC_ATOM_COUNT>
0

> <PUBCHEM_COMPONENT_COUNT>
1

> <PUBCHEM_CACTVS_TAUTO_COUNT>
1

> <PUBCHEM_CONFORMER_ID>
00FB084F00000003

> <PUBCHEM_MMFF94_ENERGY>
57.2875

> <PUBCHEM_FEATURE_SELFOVERLAP>
25.625

> <PUBCHEM_SHAPE_FINGERPRINT>
10 15 11959728287412050647
105312 117 13695875821972010673
10554248 39 12901532560195896272
10670039 82 14707201111442581503
10906281 52 10879983693082139528
11089746 13 13767932359933169284
11315181 36 18343304756053378761
11475781 23 14634868639708809358
117890 112 10737289060906954760
11963148 33 18273211972278636782
12166972 35 18335702792825270981
12236239 1 18409454661441146244
12596602 18 14405182871910247046
12633257 1 15554167086129412789
12670543 26 16370724803586888824
13167372 99 9439404614789664390
13288520 33 18272374161607812625
13668630 136 18412267220643167334
13690498 29 17386291016870230171
13782708 43 18200878375278295862
13914758 101 14273729634813801744
14211702 104 18059301950702980574
14849402 71 14332828466179234346
14931854 50 17749096821400651323
15064981 194 14490486292156826127
15183329 4 16587737629363249195
15188451 53 16056587795028924341
15238133 3 10015577333511471074
15348495 7 13973674049063784462
15716309 27 17489591159947155368
17093844 174 17060055904928523105
17780758 139 15770060527939208803
17857418 61 18409450250393565578
18222031 100 18334571343847179072
18769570 83 8070026657920981806
18927931 339 17918278632321160325
19841028 212 17058065944060624167
200 152 18187370908626323912
20028762 73 18202004339204025094
20281389 69 8502368919218257382
20567600 247 18409166602063533698
21054139 6 18335422348767461346
21150785 3 18187650227993201308
21307412 95 18116426141833939147
21315759 148 14117524241941694108
21521239 73 18040154032929815458
21637258 2 18130781252810331828
21756936 100 8934995963092296209
22224240 67 13326854422829000181
22393880 68 17168420558305372041
2303208 19 16128383623558094596
23081809 10 18339651057750600920
23198884 109 16153422844770024483
23402539 116 18261681380525336280
23522609 53 17983895325593120240
23559900 14 18260829353519096737
23569914 152 16740544276500248871
23845131 108 13106792543418034930
270888 7 10665488735674288455
2767999 5 12396298170823400638
2838139 119 11746936516096039582
3004659 81 18186797011212254017
3009799 131 16515687740966330540
312425 54 15051742979726674479
3663271 9 12103841254842018076
392239 28 14333125312764606011
397830 11 15984806160797234418
4015057 19 17749688366819314688
406291 66 17630598132691561815
439807 62 18335986475885046639
465052 167 17703793613662226900
484985 159 18340214068297937979
4938544 92 16415211018535450241
5104073 3 14189281716592213467
5283173 99 16515685537463550004
5470011 282 17895759611845071687
5718773 13 17987511671509095719
6328613 192 11458719321800430614
6431902 208 18343866606484746079
7495541 125 18060700581264954920
7808743 9 7997976756564833811
7970288 3 18342455989143698199

> <PUBCHEM_SHAPE_MULTIPOLES>
470.96
19.09
1.9
1.63
9.82
0.51
0.43
12.71
6.45
-1.35
-0.07
-2.12
-0.14
-0.69

> <PUBCHEM_SHAPE_SELFOVERLAP>
1016.252

> <PUBCHEM_SHAPE_VOLUME>
263.1

> <PUBCHEM_COORDINATE_TYPE>
2
5
10

