3625620
  -OEChem-06302411133D

 39 42  0     0  0  0  0  0  0999 V2000
   -0.5319    5.5731    0.0001 Cl  0  0  0  0  0  0  0  0  0  0  0  0
    3.6462   -0.2439   -2.7261 Cl  0  0  0  0  0  0  0  0  0  0  0  0
    3.6476   -0.2460    2.7263 Cl  0  0  0  0  0  0  0  0  0  0  0  0
   -5.6039   -2.5843   -0.0012 S   0  0  0  0  0  0  0  0  0  0  0  0
    1.4499   -0.8325    0.0003 O   0  0  0  0  0  0  0  0  0  0  0  0
   -3.0976   -2.0408    0.0002 N   0  0  0  0  0  0  0  0  0  0  0  0
   -4.2414   -0.1218   -0.0005 N   0  0  0  0  0  0  0  0  0  0  0  0
    0.1515   -0.3043    0.0008 N   0  0  0  0  0  0  0  0  0  0  0  0
   -2.1487   -1.0648    0.0007 C   0  0  0  0  0  0  0  0  0  0  0  0
   -2.8800    0.1096    0.0003 C   0  0  0  0  0  0  0  0  0  0  0  0
   -4.3114   -1.4240   -0.0007 C   0  0  0  0  0  0  0  0  0  0  0  0
   -2.3142    1.4295    0.0003 C   0  0  0  0  0  0  0  0  0  0  0  0
   -3.1291   -3.4150    0.0003 C   0  0  0  0  0  0  0  0  0  0  0  0
   -0.7359   -1.2771    0.0005 C   0  0  0  0  0  0  0  0  0  0  0  0
   -4.3910   -3.8773   -0.0003 C   0  0  0  0  0  0  0  0  0  0  0  0
   -2.0391    2.0703   -1.2078 C   0  0  0  0  0  0  0  0  0  0  0  0
   -2.0385    2.0701    1.2082 C   0  0  0  0  0  0  0  0  0  0  0  0
   -1.4881    3.3517   -1.2077 C   0  0  0  0  0  0  0  0  0  0  0  0
   -1.4875    3.3516    1.2082 C   0  0  0  0  0  0  0  0  0  0  0  0
    3.7660   -0.2912    0.0001 C   0  0  0  0  0  0  0  0  0  0  0  0
    2.3669    0.2512    0.0007 C   0  0  0  0  0  0  0  0  0  0  0  0
   -1.2123    3.9924    0.0002 C   0  0  0  0  0  0  0  0  0  0  0  0
    4.4139   -0.5418   -1.2082 C   0  0  0  0  0  0  0  0  0  0  0  0
    4.4143   -0.5430    1.2078 C   0  0  0  0  0  0  0  0  0  0  0  0
    5.7145   -1.0458   -1.2087 C   0  0  0  0  0  0  0  0  0  0  0  0
    5.7149   -1.0471    1.2072 C   0  0  0  0  0  0  0  0  0  0  0  0
    6.3650   -1.2985   -0.0009 C   0  0  0  0  0  0  0  0  0  0  0  0
   -2.2242   -4.0031    0.0010 H   0  0  0  0  0  0  0  0  0  0  0  0
   -0.3761   -2.3217    0.0001 H   0  0  0  0  0  0  0  0  0  0  0  0
   -4.6731   -4.9207   -0.0003 H   0  0  0  0  0  0  0  0  0  0  0  0
   -2.2478    1.5842   -2.1580 H   0  0  0  0  0  0  0  0  0  0  0  0
   -2.2467    1.5839    2.1585 H   0  0  0  0  0  0  0  0  0  0  0  0
   -1.2784    3.8387   -2.1566 H   0  0  0  0  0  0  0  0  0  0  0  0
   -1.2773    3.8385    2.1570 H   0  0  0  0  0  0  0  0  0  0  0  0
    2.1791    0.8976    0.8661 H   0  0  0  0  0  0  0  0  0  0  0  0
    2.1788    0.8985   -0.8640 H   0  0  0  0  0  0  0  0  0  0  0  0
    6.2353   -1.2473   -2.1414 H   0  0  0  0  0  0  0  0  0  0  0  0
    6.2360   -1.2495    2.1396 H   0  0  0  0  0  0  0  0  0  0  0  0
    7.3777   -1.6910   -0.0013 H   0  0  0  0  0  0  0  0  0  0  0  0
  1 22  1  0  0  0  0
  2 23  1  0  0  0  0
  3 24  1  0  0  0  0
  4 11  1  0  0  0  0
  4 15  1  0  0  0  0
  5  8  1  0  0  0  0
  5 21  1  0  0  0  0
  6  9  1  0  0  0  0
  6 11  1  0  0  0  0
  6 13  1  0  0  0  0
  7 10  1  0  0  0  0
  7 11  2  0  0  0  0
  8 14  2  3  0  0  0
  9 10  2  0  0  0  0
  9 14  1  0  0  0  0
 10 12  1  0  0  0  0
 12 16  2  0  0  0  0
 12 17  1  0  0  0  0
 13 15  2  0  0  0  0
 13 28  1  0  0  0  0
 14 29  1  0  0  0  0
 15 30  1  0  0  0  0
 16 18  1  0  0  0  0
 16 31  1  0  0  0  0
 17 19  2  0  0  0  0
 17 32  1  0  0  0  0
 18 22  2  0  0  0  0
 18 33  1  0  0  0  0
 19 22  1  0  0  0  0
 19 34  1  0  0  0  0
 20 21  1  0  0  0  0
 20 23  2  0  0  0  0
 20 24  1  0  0  0  0
 21 35  1  0  0  0  0
 21 36  1  0  0  0  0
 23 25  1  0  0  0  0
 24 26  2  0  0  0  0
 25 27  2  0  0  0  0
 25 37  1  0  0  0  0
 26 27  1  0  0  0  0
 26 38  1  0  0  0  0
 27 39  1  0  0  0  0
M  END
> <PUBCHEM_COMPOUND_CID>
3625620

> <PUBCHEM_CONFORMER_RMSD>
0.8

> <PUBCHEM_CONFORMER_DIVERSEORDER>
1
30
15
35
25
13
32
20
10
8
22
9
16
18
34
2
6
11
7
36
14
29
23
17
21
33
26
12
4
27
5
19
31
28
24
37
3

> <PUBCHEM_MMFF94_PARTIAL_CHARGES>
37
1 -0.18
10 0.17
11 0.24
12 0.05
13 -0.18
14 0.47
15 -0.05
16 -0.15
17 -0.15
18 -0.15
19 -0.15
2 -0.18
20 -0.14
21 0.42
22 0.18
23 0.18
24 0.18
25 -0.15
26 -0.15
27 -0.15
28 0.15
29 0.06
3 -0.18
30 0.15
31 0.15
32 0.15
33 0.15
34 0.15
37 0.15
38 0.15
39 0.15
4 -0.16
5 -0.22
6 0.33
7 -0.57
8 -0.51
9 -0.24

> <PUBCHEM_EFFECTIVE_ROTOR_COUNT>
5

> <PUBCHEM_PHARMACOPHORE_FEATURES>
6
1 8 acceptor
3 6 7 11 cation
5 4 6 11 13 15 rings
5 6 7 9 10 11 rings
6 12 16 17 18 19 22 rings
6 20 23 24 25 26 27 rings

> <PUBCHEM_HEAVY_ATOM_COUNT>
27

> <PUBCHEM_ATOM_DEF_STEREO_COUNT>
0

> <PUBCHEM_ATOM_UDEF_STEREO_COUNT>
0

> <PUBCHEM_BOND_DEF_STEREO_COUNT>
0

> <PUBCHEM_BOND_UDEF_STEREO_COUNT>
1

> <PUBCHEM_ISOTOPIC_ATOM_COUNT>
0

> <PUBCHEM_COMPONENT_COUNT>
1

> <PUBCHEM_CACTVS_TAUTO_COUNT>
1

> <PUBCHEM_CONFORMER_ID>
0037529400000001

> <PUBCHEM_MMFF94_ENERGY>
67.98

> <PUBCHEM_FEATURE_SELFOVERLAP>
30.701

> <PUBCHEM_SHAPE_FINGERPRINT>
10050765 1 17834113423109353815
10622 236 17532352215451023778
10670039 82 18336549326879809126
10937287 8 17474386876930669685
11056379 131 18338238150431828870
11059845 2 17543322996965635802
11545043 162 18201434736831097578
11552529 35 18262794060897095972
12107183 9 17468467124176084394
12166972 35 17749391524238044767
12342043 65 17703523125075307334
12788726 201 18187360996026161651
13257819 101 13757252696498376491
13540713 4 17683513306831181671
13540713 5 17768540740014492075
13583140 156 17845076408156023750
13782708 43 17775287166519845678
14068700 675 18260828228273899948
14294032 229 18118690920189317773
14347332 77 18408602539676724074
14910302 57 18129396907536405502
15419008 47 18060701702097970816
15484559 13 14741820772531599214
15961568 22 18267580394254240016
16067689 68 17683493193478204642
17686467 74 18337950212368218488
17844677 252 18411140221656888674
19315092 285 16953618854512745840
20775438 99 17112399573235212515
21033648 29 17274242969216564866
21033650 10 18046936826141757502
21065201 7 18271243812331213498
2132832 1 18040716995752282244
2297311 6 18412831295450868919
23366157 5 17612023081755611557
23557571 272 18271813393033339807
23559900 14 18339918328605429193
3886686 26 17616506494520617186
4409770 3 18189322499559485725
469060 322 18339656567702836969
508706 21 18127966421718850328
6700243 42 17985300463082536060
7399639 24 18060697312525752126
9849439 229 17474384682513884256
9981440 41 17759521067351895025

> <PUBCHEM_SHAPE_MULTIPOLES>
544.29
13.25
5.56
1.67
14.47
7.71
0
-14.07
0
-8.87
0
2.94
0.24
0

> <PUBCHEM_SHAPE_SELFOVERLAP>
1157.999

> <PUBCHEM_SHAPE_VOLUME>
308.8

> <PUBCHEM_COORDINATE_TYPE>
2
5
10

