3632506
  -OEChem-06302411133D

 39 42  0     0  0  0  0  0  0999 V2000
   -1.0096    5.5878   -0.0802 Cl  0  0  0  0  0  0  0  0  0  0  0  0
    3.6077   -0.0036    2.5640 Cl  0  0  0  0  0  0  0  0  0  0  0  0
    7.8885   -1.4166   -0.3770 Cl  0  0  0  0  0  0  0  0  0  0  0  0
   -5.6156   -2.8407    0.0333 S   0  0  0  0  0  0  0  0  0  0  0  0
    1.3275   -0.6967   -0.1122 O   0  0  0  0  0  0  0  0  0  0  0  0
   -3.1441   -2.1577   -0.0174 N   0  0  0  0  0  0  0  0  0  0  0  0
   -4.3934   -0.3058    0.0028 N   0  0  0  0  0  0  0  0  0  0  0  0
    0.0019   -0.2421   -0.0857 N   0  0  0  0  0  0  0  0  0  0  0  0
   -2.2516   -1.1301   -0.0377 C   0  0  0  0  0  0  0  0  0  0  0  0
   -3.0475    0.0015   -0.0246 C   0  0  0  0  0  0  0  0  0  0  0  0
   -4.3904   -1.6099    0.0057 C   0  0  0  0  0  0  0  0  0  0  0  0
   -2.5566    1.3510   -0.0380 C   0  0  0  0  0  0  0  0  0  0  0  0
   -3.0986   -3.5316   -0.0149 C   0  0  0  0  0  0  0  0  0  0  0  0
   -0.8295   -1.2630   -0.0665 C   0  0  0  0  0  0  0  0  0  0  0  0
   -4.3324   -4.0637    0.0110 C   0  0  0  0  0  0  0  0  0  0  0  0
   -2.3426    2.0032   -1.2522 C   0  0  0  0  0  0  0  0  0  0  0  0
   -2.2926    2.0090    1.1632 C   0  0  0  0  0  0  0  0  0  0  0  0
   -1.8643    3.3135   -1.2651 C   0  0  0  0  0  0  0  0  0  0  0  0
   -1.8144    3.3194    1.1502 C   0  0  0  0  0  0  0  0  0  0  0  0
    3.6092   -0.0266   -0.1606 C   0  0  0  0  0  0  0  0  0  0  0  0
    2.1822    0.4366   -0.1320 C   0  0  0  0  0  0  0  0  0  0  0  0
   -1.6002    3.9715   -0.0640 C   0  0  0  0  0  0  0  0  0  0  0  0
    4.3238   -0.2482    1.0128 C   0  0  0  0  0  0  0  0  0  0  0  0
    4.2077   -0.2316   -1.4004 C   0  0  0  0  0  0  0  0  0  0  0  0
    5.6489   -0.6786    0.9462 C   0  0  0  0  0  0  0  0  0  0  0  0
    5.5328   -0.6619   -1.4670 C   0  0  0  0  0  0  0  0  0  0  0  0
    6.2535   -0.8853   -0.2938 C   0  0  0  0  0  0  0  0  0  0  0  0
   -2.1624   -4.0680   -0.0321 H   0  0  0  0  0  0  0  0  0  0  0  0
   -0.4118   -2.2859   -0.0728 H   0  0  0  0  0  0  0  0  0  0  0  0
   -4.5556   -5.1213    0.0182 H   0  0  0  0  0  0  0  0  0  0  0  0
   -2.5431    1.5039   -2.1973 H   0  0  0  0  0  0  0  0  0  0  0  0
   -2.4538    1.5143    2.1182 H   0  0  0  0  0  0  0  0  0  0  0  0
   -1.7016    3.8091   -2.2188 H   0  0  0  0  0  0  0  0  0  0  0  0
   -1.6125    3.8196    2.0939 H   0  0  0  0  0  0  0  0  0  0  0  0
    1.9747    1.0914    0.7220 H   0  0  0  0  0  0  0  0  0  0  0  0
    1.9679    1.0320   -1.0298 H   0  0  0  0  0  0  0  0  0  0  0  0
    3.6577   -0.0642   -2.3226 H   0  0  0  0  0  0  0  0  0  0  0  0
    6.2123   -0.8536    1.8603 H   0  0  0  0  0  0  0  0  0  0  0  0
    5.9909   -0.8197   -2.4401 H   0  0  0  0  0  0  0  0  0  0  0  0
  1 22  1  0  0  0  0
  2 23  1  0  0  0  0
  3 27  1  0  0  0  0
  4 11  1  0  0  0  0
  4 15  1  0  0  0  0
  5  8  1  0  0  0  0
  5 21  1  0  0  0  0
  6  9  1  0  0  0  0
  6 11  1  0  0  0  0
  6 13  1  0  0  0  0
  7 10  1  0  0  0  0
  7 11  2  0  0  0  0
  8 14  2  3  0  0  0
  9 10  2  0  0  0  0
  9 14  1  0  0  0  0
 10 12  1  0  0  0  0
 12 16  2  0  0  0  0
 12 17  1  0  0  0  0
 13 15  2  0  0  0  0
 13 28  1  0  0  0  0
 14 29  1  0  0  0  0
 15 30  1  0  0  0  0
 16 18  1  0  0  0  0
 16 31  1  0  0  0  0
 17 19  2  0  0  0  0
 17 32  1  0  0  0  0
 18 22  2  0  0  0  0
 18 33  1  0  0  0  0
 19 22  1  0  0  0  0
 19 34  1  0  0  0  0
 20 21  1  0  0  0  0
 20 23  2  0  0  0  0
 20 24  1  0  0  0  0
 21 35  1  0  0  0  0
 21 36  1  0  0  0  0
 23 25  1  0  0  0  0
 24 26  2  0  0  0  0
 24 37  1  0  0  0  0
 25 27  2  0  0  0  0
 25 38  1  0  0  0  0
 26 27  1  0  0  0  0
 26 39  1  0  0  0  0
M  END
> <PUBCHEM_COMPOUND_CID>
3632506

> <PUBCHEM_CONFORMER_RMSD>
0.8

> <PUBCHEM_CONFORMER_DIVERSEORDER>
1
17
15
28
59
56
50
29
25
61
23
36
43
14
46
30
69
22
37
5
53
38
72
35
54
16
6
40
52
48
70
8
39
44
24
19
58
10
33
20
9
45
49
31
18
2
32
21
4
62
55
63
7
41
68
13
3
34
27
75
42
26
74
67
71
60
12
66
65
47
11
64
73
51
57

> <PUBCHEM_MMFF94_PARTIAL_CHARGES>
37
1 -0.18
10 0.17
11 0.24
12 0.05
13 -0.18
14 0.47
15 -0.05
16 -0.15
17 -0.15
18 -0.15
19 -0.15
2 -0.18
20 -0.14
21 0.42
22 0.18
23 0.18
24 -0.15
25 -0.15
26 -0.15
27 0.18
28 0.15
29 0.06
3 -0.18
30 0.15
31 0.15
32 0.15
33 0.15
34 0.15
37 0.15
38 0.15
39 0.15
4 -0.16
5 -0.22
6 0.33
7 -0.57
8 -0.51
9 -0.24

> <PUBCHEM_EFFECTIVE_ROTOR_COUNT>
5

> <PUBCHEM_PHARMACOPHORE_FEATURES>
6
1 8 acceptor
3 6 7 11 cation
5 4 6 11 13 15 rings
5 6 7 9 10 11 rings
6 12 16 17 18 19 22 rings
6 20 23 24 25 26 27 rings

> <PUBCHEM_HEAVY_ATOM_COUNT>
27

> <PUBCHEM_ATOM_DEF_STEREO_COUNT>
0

> <PUBCHEM_ATOM_UDEF_STEREO_COUNT>
0

> <PUBCHEM_BOND_DEF_STEREO_COUNT>
0

> <PUBCHEM_BOND_UDEF_STEREO_COUNT>
1

> <PUBCHEM_ISOTOPIC_ATOM_COUNT>
0

> <PUBCHEM_COMPONENT_COUNT>
1

> <PUBCHEM_CACTVS_TAUTO_COUNT>
1

> <PUBCHEM_CONFORMER_ID>
00376D7A00000001

> <PUBCHEM_MMFF94_ENERGY>
65.1993

> <PUBCHEM_FEATURE_SELFOVERLAP>
30.701

> <PUBCHEM_SHAPE_FINGERPRINT>
100830 39 18338797811194727420
10411042 1 18338800147298461119
10670039 82 18408322160196079938
10937287 8 17546163004734808925
11014199 57 18410296930155816700
11056379 131 18337674118088613700
11059845 2 17615379504345306240
11434127 23 18128810838280601076
11545043 162 18201434762569122914
11552529 35 18334852771526372100
11796584 16 18197218037046269070
12107183 9 17540526930111535730
12166972 35 17749673012199825679
12342043 65 17846510235695810350
12788726 201 18187358809924763755
13009979 54 18260558852272959004
13540713 5 17624427763867944579
13782708 43 17846779633103366862
14068700 675 18261111915090235332
14347332 77 18409167710149193694
14713325 29 18342181011845208310
14910302 57 18129118743873939654
15021287 119 17095817504000971212
15042514 8 18411420626770192959
15419008 47 18060138760671310496
15876981 60 18260839202068614956
15961568 22 18194677292875358744
17686467 74 18338233890658007000
17844677 252 18411142437854816392
21033648 29 17346301671345369186
21033650 10 18118430383567844302
21065201 7 18343016654290069090
21796203 349 17829648224088011715
2297311 6 18411985783962550315
23366157 5 17539965500671144349
23557571 272 18343310257853373839
23559900 14 18267861855569809201
3886686 26 17688564105675071794
4409770 3 18261946359307746573
469060 322 18339092535554826609
508706 21 18199738159887214512
59755656 215 18342174440593309559
6700243 42 17913245076715995996
9981440 41 17831576475404417625

> <PUBCHEM_SHAPE_MULTIPOLES>
544.29
15.32
5.67
1.34
28.16
6.63
0.49
-14.93
-1.13
-11.09
-0.27
1.69
0.46
0.43

> <PUBCHEM_SHAPE_SELFOVERLAP>
1157.049

> <PUBCHEM_SHAPE_VOLUME>
309.3

> <PUBCHEM_COORDINATE_TYPE>
2
5
10

