3728080
  -OEChem-06302411133D

 39 42  0     0  0  0  0  0  0999 V2000
    6.3063    0.7340   -2.3551 Cl  0  0  0  0  0  0  0  0  0  0  0  0
    7.7235    1.1788    0.5208 Cl  0  0  0  0  0  0  0  0  0  0  0  0
   -5.7614    2.5757   -0.0817 S   0  0  0  0  0  0  0  0  0  0  0  0
    1.1654    0.4460    0.1614 O   0  0  0  0  0  0  0  0  0  0  0  0
   -3.2891    1.8996    0.0057 N   0  0  0  0  0  0  0  0  0  0  0  0
   -4.5306    0.0447   -0.0866 N   0  0  0  0  0  0  0  0  0  0  0  0
   -0.1585   -0.0103    0.0956 N   0  0  0  0  0  0  0  0  0  0  0  0
   -2.3934    0.8747    0.0200 C   0  0  0  0  0  0  0  0  0  0  0  0
   -3.1843   -0.2591   -0.0377 C   0  0  0  0  0  0  0  0  0  0  0  0
   -4.5325    1.3485   -0.0577 C   0  0  0  0  0  0  0  0  0  0  0  0
   -2.6889   -1.6066   -0.0466 C   0  0  0  0  0  0  0  0  0  0  0  0
   -3.2487    3.2733    0.0375 C   0  0  0  0  0  0  0  0  0  0  0  0
   -0.9727    1.0114    0.0826 C   0  0  0  0  0  0  0  0  0  0  0  0
   -4.4836    3.8019   -0.0020 C   0  0  0  0  0  0  0  0  0  0  0  0
   -2.4984   -2.2877    1.1558 C   0  0  0  0  0  0  0  0  0  0  0  0
   -2.3981   -2.2349   -1.2576 C   0  0  0  0  0  0  0  0  0  0  0  0
    3.4469   -0.2212    0.2441 C   0  0  0  0  0  0  0  0  0  0  0  0
   -2.0168   -3.5968    1.1473 C   0  0  0  0  0  0  0  0  0  0  0  0
   -1.9165   -3.5441   -1.2661 C   0  0  0  0  0  0  0  0  0  0  0  0
    2.0220   -0.6860    0.1739 C   0  0  0  0  0  0  0  0  0  0  0  0
   -1.7260   -4.2249   -0.0636 C   0  0  0  0  0  0  0  0  0  0  0  0
    4.1510    0.0193   -0.9304 C   0  0  0  0  0  0  0  0  0  0  0  0
    4.0495   -0.0334    1.4829 C   0  0  0  0  0  0  0  0  0  0  0  0
    5.4752    0.4531   -0.8652 C   0  0  0  0  0  0  0  0  0  0  0  0
    5.3734    0.4003    1.5482 C   0  0  0  0  0  0  0  0  0  0  0  0
    6.0863    0.6438    0.3743 C   0  0  0  0  0  0  0  0  0  0  0  0
   -2.3150    3.8123    0.0879 H   0  0  0  0  0  0  0  0  0  0  0  0
   -0.5589    2.0352    0.1219 H   0  0  0  0  0  0  0  0  0  0  0  0
   -4.7105    4.8585    0.0118 H   0  0  0  0  0  0  0  0  0  0  0  0
   -2.7203   -1.8122    2.1083 H   0  0  0  0  0  0  0  0  0  0  0  0
   -2.5409   -1.7179   -2.2036 H   0  0  0  0  0  0  0  0  0  0  0  0
    1.8608   -1.2857   -0.7310 H   0  0  0  0  0  0  0  0  0  0  0  0
    1.7863   -1.3224    1.0364 H   0  0  0  0  0  0  0  0  0  0  0  0
   -1.8680   -4.1269    2.0834 H   0  0  0  0  0  0  0  0  0  0  0  0
   -1.6896   -4.0332   -2.2088 H   0  0  0  0  0  0  0  0  0  0  0  0
   -1.3508   -5.2441   -0.0703 H   0  0  0  0  0  0  0  0  0  0  0  0
    3.6679   -0.1294   -1.8934 H   0  0  0  0  0  0  0  0  0  0  0  0
    3.5026   -0.2178    2.4035 H   0  0  0  0  0  0  0  0  0  0  0  0
    5.8338    0.5441    2.5225 H   0  0  0  0  0  0  0  0  0  0  0  0
  1 24  1  0  0  0  0
  2 26  1  0  0  0  0
  3 10  1  0  0  0  0
  3 14  1  0  0  0  0
  4  7  1  0  0  0  0
  4 20  1  0  0  0  0
  5  8  1  0  0  0  0
  5 10  1  0  0  0  0
  5 12  1  0  0  0  0
  6  9  1  0  0  0  0
  6 10  2  0  0  0  0
  7 13  2  3  0  0  0
  8  9  2  0  0  0  0
  8 13  1  0  0  0  0
  9 11  1  0  0  0  0
 11 15  2  0  0  0  0
 11 16  1  0  0  0  0
 12 14  2  0  0  0  0
 12 27  1  0  0  0  0
 13 28  1  0  0  0  0
 14 29  1  0  0  0  0
 15 18  1  0  0  0  0
 15 30  1  0  0  0  0
 16 19  2  0  0  0  0
 16 31  1  0  0  0  0
 17 20  1  0  0  0  0
 17 22  2  0  0  0  0
 17 23  1  0  0  0  0
 18 21  2  0  0  0  0
 18 34  1  0  0  0  0
 19 21  1  0  0  0  0
 19 35  1  0  0  0  0
 20 32  1  0  0  0  0
 20 33  1  0  0  0  0
 21 36  1  0  0  0  0
 22 24  1  0  0  0  0
 22 37  1  0  0  0  0
 23 25  2  0  0  0  0
 23 38  1  0  0  0  0
 24 26  2  0  0  0  0
 25 26  1  0  0  0  0
 25 39  1  0  0  0  0
M  END
> <PUBCHEM_COMPOUND_CID>
3728080

> <PUBCHEM_CONFORMER_RMSD>
0.8

> <PUBCHEM_CONFORMER_DIVERSEORDER>
1
32
76
21
70
80
79
61
73
33
64
62
47
29
67
25
43
6
3
8
14
65
13
19
41
40
36
7
26
51
72
77
31
68
75
5
23
46
66
78
44
12
50
63
37
55
60
9
38
54
24
82
4
16
39
15
81
2
59
27
45
22
57
35
52
17
28
53
10
20
48
34
30
18
11
84
83
49
58
74
42
71
69
56

> <PUBCHEM_MMFF94_PARTIAL_CHARGES>
37
1 -0.18
10 0.24
11 0.05
12 -0.18
13 0.47
14 -0.05
15 -0.15
16 -0.15
17 -0.14
18 -0.15
19 -0.15
2 -0.18
20 0.42
21 -0.15
22 -0.15
23 -0.15
24 0.18
25 -0.15
26 0.18
27 0.15
28 0.06
29 0.15
3 -0.16
30 0.15
31 0.15
34 0.15
35 0.15
36 0.15
37 0.15
38 0.15
39 0.15
4 -0.22
5 0.33
6 -0.57
7 -0.51
8 -0.24
9 0.17

> <PUBCHEM_EFFECTIVE_ROTOR_COUNT>
5

> <PUBCHEM_PHARMACOPHORE_FEATURES>
6
1 7 acceptor
3 5 6 10 cation
5 3 5 10 12 14 rings
5 5 6 8 9 10 rings
6 11 15 16 18 19 21 rings
6 17 22 23 24 25 26 rings

> <PUBCHEM_HEAVY_ATOM_COUNT>
26

> <PUBCHEM_ATOM_DEF_STEREO_COUNT>
0

> <PUBCHEM_ATOM_UDEF_STEREO_COUNT>
0

> <PUBCHEM_BOND_DEF_STEREO_COUNT>
0

> <PUBCHEM_BOND_UDEF_STEREO_COUNT>
1

> <PUBCHEM_ISOTOPIC_ATOM_COUNT>
0

> <PUBCHEM_COMPONENT_COUNT>
1

> <PUBCHEM_CACTVS_TAUTO_COUNT>
1

> <PUBCHEM_CONFORMER_ID>
0038E2D000000001

> <PUBCHEM_MMFF94_ENERGY>
63.7

> <PUBCHEM_FEATURE_SELFOVERLAP>
30.701

> <PUBCHEM_SHAPE_FINGERPRINT>
10411042 1 17978507869515761895
10675989 125 17765720117845300624
107951 10 18341055129546048991
10940486 97 18335422421323210036
11056379 131 18338524152425895494
11135609 187 18190727666888176589
12107183 9 18117826708629469418
12166972 35 12535046638560066305
12390115 104 18199757959818045121
12616971 3 17167577203207049484
12788726 201 18336814394976363627
14251757 5 18412552019470903752
14251764 75 18125164840353076777
14659021 117 18052804034271829314
14790565 3 18194682571004718865
14844126 61 18336826523652647875
15131766 46 15937839499293104694
15463212 79 18261383425890622651
16087824 20 18411696613818390903
17844677 252 18269557307533441344
19304144 158 17985825059611928112
19319366 153 17603864442851649720
20511986 3 17822278081540265800
20554085 129 18055609760797599873
21315764 119 18268162985213685334
23559900 14 18130781295981934632
23728640 28 18409727396191409179
3383291 50 18339642351873367739
3411729 13 17975976463161961097
3610482 184 18041293144319525990
4015057 19 16702011011088855897
4073 2 18409167732278054090
44249763 50 17916571163941036344
497634 4 16371294453410146067
508706 21 18129658720332299734
5219985 13 18192429680290452629
5265222 85 18340775926179334316
5364581 5 18055058024919704360
58260988 114 16298961960438467555
6327066 14 18265044748483465965
7288768 16 17894914001425176243
9981440 41 18336268921471086611

> <PUBCHEM_SHAPE_MULTIPOLES>
521.84
17.01
4.52
1.35
30.14
2.85
0.35
-13.13
0.93
-10.38
0.12
2.26
0.43
-0.17

> <PUBCHEM_SHAPE_SELFOVERLAP>
1118.186

> <PUBCHEM_SHAPE_VOLUME>
293.2

> <PUBCHEM_COORDINATE_TYPE>
2
5
10

