3810507
  -OEChem-06302411133D

 42 45  0     0  0  0  0  0  0999 V2000
    3.7063   -0.2463    2.7193 Cl  0  0  0  0  0  0  0  0  0  0  0  0
   -5.5967   -2.5923   -0.0013 S   0  0  0  0  0  0  0  0  0  0  0  0
    3.7360   -0.2608   -2.3807 F   0  0  0  0  0  0  0  0  0  0  0  0
    1.4515   -0.8183   -0.0041 O   0  0  0  0  0  0  0  0  0  0  0  0
   -3.0921   -2.0409   -0.0014 N   0  0  0  0  0  0  0  0  0  0  0  0
   -4.2419   -0.1256   -0.0039 N   0  0  0  0  0  0  0  0  0  0  0  0
    0.1515   -0.2942   -0.0038 N   0  0  0  0  0  0  0  0  0  0  0  0
   -2.8812    0.1104   -0.0038 C   0  0  0  0  0  0  0  0  0  0  0  0
   -2.1463   -1.0619   -0.0022 C   0  0  0  0  0  0  0  0  0  0  0  0
   -2.3197    1.4319   -0.0055 C   0  0  0  0  0  0  0  0  0  0  0  0
   -4.3079   -1.4279   -0.0026 C   0  0  0  0  0  0  0  0  0  0  0  0
   -3.1193   -3.4152    0.0002 C   0  0  0  0  0  0  0  0  0  0  0  0
   -2.0469    2.0722   -1.2142 C   0  0  0  0  0  0  0  0  0  0  0  0
   -2.0468    2.0752    1.2018 C   0  0  0  0  0  0  0  0  0  0  0  0
   -0.7329   -1.2697   -0.0026 C   0  0  0  0  0  0  0  0  0  0  0  0
   -1.2286    3.9993   -0.0085 C   0  0  0  0  0  0  0  0  0  0  0  0
   -4.3797   -3.8815    0.0006 C   0  0  0  0  0  0  0  0  0  0  0  0
   -1.5013    3.3560   -1.2157 C   0  0  0  0  0  0  0  0  0  0  0  0
   -1.5014    3.3589    1.2002 C   0  0  0  0  0  0  0  0  0  0  0  0
   -0.6459    5.3719   -0.0101 C   0  0  0  0  0  0  0  0  0  0  0  0
    3.7659   -0.2696   -0.0057 C   0  0  0  0  0  0  0  0  0  0  0  0
    2.3651    0.2682   -0.0054 C   0  0  0  0  0  0  0  0  0  0  0  0
    4.4415   -0.5286    1.1833 C   0  0  0  0  0  0  0  0  0  0  0  0
    4.3812   -0.5069   -1.2318 C   0  0  0  0  0  0  0  0  0  0  0  0
    5.7430   -1.0289    1.1463 C   0  0  0  0  0  0  0  0  0  0  0  0
    5.6828   -1.0072   -1.2687 C   0  0  0  0  0  0  0  0  0  0  0  0
    6.3638   -1.2681   -0.0797 C   0  0  0  0  0  0  0  0  0  0  0  0
   -2.2125   -4.0004    0.0012 H   0  0  0  0  0  0  0  0  0  0  0  0
   -2.2541    1.5844   -2.1638 H   0  0  0  0  0  0  0  0  0  0  0  0
   -2.2539    1.5896    2.1526 H   0  0  0  0  0  0  0  0  0  0  0  0
   -0.3697   -2.3132   -0.0019 H   0  0  0  0  0  0  0  0  0  0  0  0
   -4.6585   -4.9257    0.0019 H   0  0  0  0  0  0  0  0  0  0  0  0
   -1.2947    3.8452   -2.1639 H   0  0  0  0  0  0  0  0  0  0  0  0
   -1.2947    3.8503    2.1472 H   0  0  0  0  0  0  0  0  0  0  0  0
   -0.0131    5.5335    0.8692 H   0  0  0  0  0  0  0  0  0  0  0  0
   -0.0159    5.5328   -0.8915 H   0  0  0  0  0  0  0  0  0  0  0  0
   -1.4454    6.1194   -0.0092 H   0  0  0  0  0  0  0  0  0  0  0  0
    2.1982    0.8784   -0.9031 H   0  0  0  0  0  0  0  0  0  0  0  0
    2.1756    0.9310    0.8468 H   0  0  0  0  0  0  0  0  0  0  0  0
    6.2873   -1.2378    2.0639 H   0  0  0  0  0  0  0  0  0  0  0  0
    6.1658   -1.1936   -2.2234 H   0  0  0  0  0  0  0  0  0  0  0  0
    7.3771   -1.6577   -0.1087 H   0  0  0  0  0  0  0  0  0  0  0  0
  1 23  1  0  0  0  0
  2 11  1  0  0  0  0
  2 17  1  0  0  0  0
  3 24  1  0  0  0  0
  4  7  1  0  0  0  0
  4 22  1  0  0  0  0
  5  9  1  0  0  0  0
  5 11  1  0  0  0  0
  5 12  1  0  0  0  0
  6  8  1  0  0  0  0
  6 11  2  0  0  0  0
  7 15  2  3  0  0  0
  8  9  2  0  0  0  0
  8 10  1  0  0  0  0
  9 15  1  0  0  0  0
 10 13  2  0  0  0  0
 10 14  1  0  0  0  0
 12 17  2  0  0  0  0
 12 28  1  0  0  0  0
 13 18  1  0  0  0  0
 13 29  1  0  0  0  0
 14 19  2  0  0  0  0
 14 30  1  0  0  0  0
 15 31  1  0  0  0  0
 16 18  2  0  0  0  0
 16 19  1  0  0  0  0
 16 20  1  0  0  0  0
 17 32  1  0  0  0  0
 18 33  1  0  0  0  0
 19 34  1  0  0  0  0
 20 35  1  0  0  0  0
 20 36  1  0  0  0  0
 20 37  1  0  0  0  0
 21 22  1  0  0  0  0
 21 23  1  0  0  0  0
 21 24  2  0  0  0  0
 22 38  1  0  0  0  0
 22 39  1  0  0  0  0
 23 25  2  0  0  0  0
 24 26  1  0  0  0  0
 25 27  1  0  0  0  0
 25 40  1  0  0  0  0
 26 27  2  0  0  0  0
 26 41  1  0  0  0  0
 27 42  1  0  0  0  0
M  END
> <PUBCHEM_COMPOUND_CID>
3810507

> <PUBCHEM_CONFORMER_RMSD>
0.8

> <PUBCHEM_CONFORMER_DIVERSEORDER>
1
75
57
71
27
53
10
18
56
74
23
2
35
24
52
5
4
6
16
46
28
29
70
30
17
41
59
21
13
15
47
9
64
22
66
50
19
37
48
72
7
36
25
26
58
20
3
44
33
8
43
34
69
31
38
54
45
40
62
32
14
73
51
11
49
61
12
39
63
60
67
42
68
55
65

> <PUBCHEM_MMFF94_PARTIAL_CHARGES>
37
1 -0.18
10 0.05
11 0.24
12 -0.18
13 -0.15
14 -0.15
15 0.47
16 -0.14
17 -0.05
18 -0.15
19 -0.15
2 -0.16
20 0.14
21 -0.14
22 0.42
23 0.18
24 0.19
25 -0.15
26 -0.15
27 -0.15
28 0.15
29 0.15
3 -0.19
30 0.15
31 0.06
32 0.15
33 0.15
34 0.15
4 -0.22
40 0.15
41 0.15
42 0.15
5 0.33
6 -0.57
7 -0.51
8 0.17
9 -0.24

> <PUBCHEM_EFFECTIVE_ROTOR_COUNT>
5

> <PUBCHEM_PHARMACOPHORE_FEATURES>
6
1 7 acceptor
3 5 6 11 cation
5 2 5 11 12 17 rings
5 5 6 8 9 11 rings
6 10 13 14 16 18 19 rings
6 21 23 24 25 26 27 rings

> <PUBCHEM_HEAVY_ATOM_COUNT>
27

> <PUBCHEM_ATOM_DEF_STEREO_COUNT>
0

> <PUBCHEM_ATOM_UDEF_STEREO_COUNT>
0

> <PUBCHEM_BOND_DEF_STEREO_COUNT>
0

> <PUBCHEM_BOND_UDEF_STEREO_COUNT>
1

> <PUBCHEM_ISOTOPIC_ATOM_COUNT>
0

> <PUBCHEM_COMPONENT_COUNT>
1

> <PUBCHEM_CACTVS_TAUTO_COUNT>
1

> <PUBCHEM_CONFORMER_ID>
003A24CB00000001

> <PUBCHEM_MMFF94_ENERGY>
66.4347

> <PUBCHEM_FEATURE_SELFOVERLAP>
30.701

> <PUBCHEM_SHAPE_FINGERPRINT>
10050765 1 17905890637387225067
10411042 1 18338517564120013187
10670039 82 18336549326885057910
10937287 8 17474387976463389973
11045515 52 18261110824617129597
11056379 131 18338239254233149206
11059845 2 17543322996970904056
11545043 162 18201434736836359314
11552529 35 18262795160398154764
12107183 9 17468468223692986914
12166972 35 17749672999256940447
12342043 65 17775298148935668822
12788726 201 18187359900809540163
13540713 4 17683513306831181663
13540713 5 17696484245488191907
13583140 156 17845357883137970206
13782708 43 17775286067008211366
14068700 675 18260828228268644692
14347332 77 18408602539681992346
14910302 57 18129114333042785798
15419008 47 18060420231416233960
15961568 22 18267297819765908120
16067689 68 17683494297300604426
17686467 74 18337951311874597448
17844677 252 18411140221667405658
19315092 285 16953617759264371936
20775438 99 17112398473739402523
21033648 29 17274242969216545362
21033650 10 18118993320668083622
21065201 7 18271242712824834514
2132832 1 18041278846199402476
2297311 6 18412832399246901519
23366157 5 17612023081755618061
23557571 272 18271533026269045783
23559900 14 18340199803571596833
3886686 26 17616506494531160186
4409770 3 18189322499564773469
469060 322 18339375097010570105
508706 21 18200022920534895088
6700243 42 17913242869070994884
7399639 24 18060132167886207982
9849439 229 17546441177029634952
9981440 41 17759238497190152913

> <PUBCHEM_SHAPE_MULTIPOLES>
533.28
13.31
5.46
1.5
16.29
6.9
0.31
-14.01
-0.24
-8.77
-0.08
2.44
0.29
0.15

> <PUBCHEM_SHAPE_SELFOVERLAP>
1153.075

> <PUBCHEM_SHAPE_VOLUME>
299

> <PUBCHEM_COORDINATE_TYPE>
2
5
10

