3811512
  -OEChem-06302411133D

 43 46  0     0  0  0  0  0  0999 V2000
   -5.9566   -5.7088   -0.0146 Cl  0  0  0  0  0  0  0  0  0  0  0  0
    7.0652   -1.4948   -2.3757 Cl  0  0  0  0  0  0  0  0  0  0  0  0
    8.5713   -1.6556    0.4835 Cl  0  0  0  0  0  0  0  0  0  0  0  0
   -2.1065    0.0244    0.0187 S   0  0  0  0  0  0  0  0  0  0  0  0
   -2.9809    5.4361   -0.1062 S   0  0  0  0  0  0  0  0  0  0  0  0
    2.3384    0.5178    0.1639 O   0  0  0  0  0  0  0  0  0  0  0  0
   -1.0471    3.7544   -0.0103 N   0  0  0  0  0  0  0  0  0  0  0  0
   -2.9724    2.6224   -0.0567 N   0  0  0  0  0  0  0  0  0  0  0  0
    0.9468    0.6786    0.1129 N   0  0  0  0  0  0  0  0  0  0  0  0
   -0.6856    2.4426    0.0251 C   0  0  0  0  0  0  0  0  0  0  0  0
   -1.8898    1.7767   -0.0047 C   0  0  0  0  0  0  0  0  0  0  0  0
   -2.4071    3.7975   -0.0576 C   0  0  0  0  0  0  0  0  0  0  0  0
   -0.4134    4.9743   -0.0099 C   0  0  0  0  0  0  0  0  0  0  0  0
   -3.9222   -0.0620   -0.0424 C   0  0  0  0  0  0  0  0  0  0  0  0
   -4.4281   -1.4650   -0.0352 C   0  0  0  0  0  0  0  0  0  0  0  0
    0.6549    1.9517    0.0798 C   0  0  0  0  0  0  0  0  0  0  0  0
   -1.2962    5.9864   -0.0580 C   0  0  0  0  0  0  0  0  0  0  0  0
   -4.7065   -2.1002    1.1751 C   0  0  0  0  0  0  0  0  0  0  0  0
   -4.6232   -2.1420   -1.2391 C   0  0  0  0  0  0  0  0  0  0  0  0
    4.1071   -1.0699    0.2537 C   0  0  0  0  0  0  0  0  0  0  0  0
    2.6206   -0.8730    0.1988 C   0  0  0  0  0  0  0  0  0  0  0  0
   -5.1797   -3.4123    1.1815 C   0  0  0  0  0  0  0  0  0  0  0  0
   -5.0964   -3.4540   -1.2327 C   0  0  0  0  0  0  0  0  0  0  0  0
    4.8308   -1.1810   -0.9282 C   0  0  0  0  0  0  0  0  0  0  0  0
    4.7473   -1.1384    1.4859 C   0  0  0  0  0  0  0  0  0  0  0  0
   -5.3746   -4.0893   -0.0225 C   0  0  0  0  0  0  0  0  0  0  0  0
    6.2127   -1.3631   -0.8773 C   0  0  0  0  0  0  0  0  0  0  0  0
    6.1293   -1.3207    1.5369 C   0  0  0  0  0  0  0  0  0  0  0  0
    6.8619   -1.4329    0.3553 C   0  0  0  0  0  0  0  0  0  0  0  0
    0.6623    5.0548    0.0256 H   0  0  0  0  0  0  0  0  0  0  0  0
   -4.2795    0.4515   -0.9434 H   0  0  0  0  0  0  0  0  0  0  0  0
   -4.3400    0.4822    0.8133 H   0  0  0  0  0  0  0  0  0  0  0  0
    1.4717    2.6957    0.0945 H   0  0  0  0  0  0  0  0  0  0  0  0
   -1.0413    7.0367   -0.0677 H   0  0  0  0  0  0  0  0  0  0  0  0
   -4.5579   -1.5846    2.1203 H   0  0  0  0  0  0  0  0  0  0  0  0
   -4.4091   -1.6592   -2.1890 H   0  0  0  0  0  0  0  0  0  0  0  0
    2.2045   -1.3607   -0.6920 H   0  0  0  0  0  0  0  0  0  0  0  0
    2.1440   -1.3283    1.0763 H   0  0  0  0  0  0  0  0  0  0  0  0
   -5.3917   -3.8949    2.1321 H   0  0  0  0  0  0  0  0  0  0  0  0
   -5.2430   -3.9694   -2.1785 H   0  0  0  0  0  0  0  0  0  0  0  0
    4.3188   -1.1233   -1.8860 H   0  0  0  0  0  0  0  0  0  0  0  0
    4.1865   -1.0498    2.4123 H   0  0  0  0  0  0  0  0  0  0  0  0
    6.6191   -1.3720    2.5061 H   0  0  0  0  0  0  0  0  0  0  0  0
  1 26  1  0  0  0  0
  2 27  1  0  0  0  0
  3 29  1  0  0  0  0
  4 11  1  0  0  0  0
  4 14  1  0  0  0  0
  5 12  1  0  0  0  0
  5 17  1  0  0  0  0
  6  9  1  0  0  0  0
  6 21  1  0  0  0  0
  7 10  1  0  0  0  0
  7 12  1  0  0  0  0
  7 13  1  0  0  0  0
  8 11  1  0  0  0  0
  8 12  2  0  0  0  0
  9 16  2  3  0  0  0
 10 11  2  0  0  0  0
 10 16  1  0  0  0  0
 13 17  2  0  0  0  0
 13 30  1  0  0  0  0
 14 15  1  0  0  0  0
 14 31  1  0  0  0  0
 14 32  1  0  0  0  0
 15 18  2  0  0  0  0
 15 19  1  0  0  0  0
 16 33  1  0  0  0  0
 17 34  1  0  0  0  0
 18 22  1  0  0  0  0
 18 35  1  0  0  0  0
 19 23  2  0  0  0  0
 19 36  1  0  0  0  0
 20 21  1  0  0  0  0
 20 24  2  0  0  0  0
 20 25  1  0  0  0  0
 21 37  1  0  0  0  0
 21 38  1  0  0  0  0
 22 26  2  0  0  0  0
 22 39  1  0  0  0  0
 23 26  1  0  0  0  0
 23 40  1  0  0  0  0
 24 27  1  0  0  0  0
 24 41  1  0  0  0  0
 25 28  2  0  0  0  0
 25 42  1  0  0  0  0
 27 29  2  0  0  0  0
 28 29  1  0  0  0  0
 28 43  1  0  0  0  0
M  END
> <PUBCHEM_COMPOUND_CID>
3811512

> <PUBCHEM_CONFORMER_RMSD>
1

> <PUBCHEM_CONFORMER_DIVERSEORDER>
1
183
259
308
288
74
34
118
299
177
43
212
36
370
240
313
336
325
9
164
327
276
66
3
112
188
189
281
32
270
218
145
199
105
285
2
116
150
271
223
84
341
263
133
143
322
238
349
157
339
330
121
190
213
350
337
20
48
197
266
364
294
42
175
232
333
184
251
87
253
142
362
309
181
4
358
130
246
88
329
101
151
204
132
111
56
272
225
186
214
54
319
144
140
35
171
292
298
342
131
331
89
229
195
318
248
347
267
206
174
366
93
97
100
155
49
260
136
242
137
256
152
328
287
310
45
109
5
295
179
255
19
27
314
321
196
139
167
265
211
146
284
320
343
7
324
203
200
10
160
158
96
172
176
334
117
291
227
22
360
279
65
249
283
64
53
303
191
275
92
187
219
17
185
39
8
361
21
236
50
210
47
278
315
135
233
332
352
162
170
124
215
173
25
127
6
312
61
108
221
286
134
302
369
166
23
16
205
274
37
141
201
252
18
207
29
115
208
353
306
122
234
90
297
15
73
307
59
356
300
311
14
269
222
338
107
163
70
24
354
169
38
268
293
44
264
103
359
357
165
149
231
345
86
243
60
75
228
99
224
241
363
30
71
12
202
126
26
28
63
129
289
161
247
55
304
245
76
106
77
82
326
335
98
351
365
52
355
13
33
193
119
123
296
128
67
180
68
104
62
46
91
114
371
147
11
282
258
198
192
316
194
230
168
244
94
262
250
156
83
178
368
209
85
237
72
78
159
290
346
317
79
273
120
261
323
138
277
235
41
239
58
254
69
280
257
125
182
51
367
340
31
153
305
40
148
95
226
110
102
348
154
301
113
217
57
344
81
216
220
80

> <PUBCHEM_MMFF94_PARTIAL_CHARGES>
39
1 -0.18
10 -0.24
11 0.28
12 0.24
13 -0.18
14 0.37
15 -0.14
16 0.47
17 -0.05
18 -0.15
19 -0.15
2 -0.18
20 -0.14
21 0.42
22 -0.15
23 -0.15
24 -0.15
25 -0.15
26 0.18
27 0.18
28 -0.15
29 0.18
3 -0.18
30 0.15
33 0.06
34 0.15
35 0.15
36 0.15
39 0.15
4 -0.28
40 0.15
41 0.15
42 0.15
43 0.15
5 -0.16
6 -0.22
7 0.33
8 -0.57
9 -0.51

> <PUBCHEM_EFFECTIVE_ROTOR_COUNT>
7

> <PUBCHEM_PHARMACOPHORE_FEATURES>
6
1 9 acceptor
3 7 8 12 cation
5 5 7 12 13 17 rings
5 7 8 10 11 12 rings
6 15 18 19 22 23 26 rings
6 20 24 25 27 28 29 rings

> <PUBCHEM_HEAVY_ATOM_COUNT>
29

> <PUBCHEM_ATOM_DEF_STEREO_COUNT>
0

> <PUBCHEM_ATOM_UDEF_STEREO_COUNT>
0

> <PUBCHEM_BOND_DEF_STEREO_COUNT>
0

> <PUBCHEM_BOND_UDEF_STEREO_COUNT>
1

> <PUBCHEM_ISOTOPIC_ATOM_COUNT>
0

> <PUBCHEM_COMPONENT_COUNT>
1

> <PUBCHEM_CACTVS_TAUTO_COUNT>
1

> <PUBCHEM_CONFORMER_ID>
003A28B800000001

> <PUBCHEM_MMFF94_ENERGY>
61.4859

> <PUBCHEM_FEATURE_SELFOVERLAP>
30.703

> <PUBCHEM_SHAPE_FINGERPRINT>
10290309 65 17836091070073465521
10319688 140 17761492887105779463
10319688 45 18411138009316760217
10411042 1 18338233877266566331
10940486 97 18189904123546277492
11056379 131 18339083662062760628
11062273 23 18267314131851115201
12106331 60 18411688881885734582
12107183 9 18269291209056407739
12342043 65 18060695113602399034
12758862 56 18335416911855816795
13782708 43 18060698377973410634
13785724 45 18268153226884340785
14068700 675 18333168383867785044
14429380 30 18336826493334642835
14844126 61 18263084327793512577
14910700 183 17549816033450119392
15250474 111 18043521708344660122
15400415 2 17617940232140123152
15448158 91 18059568122568452942
15467298 65 17970898973947208690
15803439 3 17174584214580623189
15876981 60 18261117352587670445
16989713 51 18343864399050657638
16992752 21 18410302423560776796
17686467 74 18341887541995362450
18393751 57 17619076036067997209
19427546 20 18263365802453705212
21716022 299 18117291464993214085
21796203 349 17975166363172979675
22956985 138 18194959866699078361
2303208 19 17703792467053924950
255183 451 18196936789132833711
32027 91 18121775295582393831
3383291 50 18194965132872432337
3504750 166 17826781548492979778
3627633 1 18410289203514860877
4073 2 18196088838350789802
44280117 145 18409732816961849886
49967989 163 18337956683965971206
504843 32 17974284322982806405
5309563 4 18338232777781825499
613672 6 18195499675805753035
6673363 416 18339933697302155284
6697151 62 18051100839990644551
6700243 42 17913524331073483628

> <PUBCHEM_SHAPE_MULTIPOLES>
589.3
20.4
9.07
1.27
37.94
10.82
-0.31
-33.2
-1.02
-21.09
-0.36
1.82
-1.15
0.22

> <PUBCHEM_SHAPE_SELFOVERLAP>
1225.78

> <PUBCHEM_SHAPE_VOLUME>
341.2

> <PUBCHEM_COORDINATE_TYPE>
2
5
10

