3816731
  -OEChem-06302411133D

 43 46  0     0  0  0  0  0  0999 V2000
   -6.9985   -0.9304    2.3759 Cl  0  0  0  0  0  0  0  0  0  0  0  0
   -8.5129   -0.9235   -0.4847 Cl  0  0  0  0  0  0  0  0  0  0  0  0
    2.2851   -0.4351   -0.0173 S   0  0  0  0  0  0  0  0  0  0  0  0
    3.7526    4.8468    0.1048 S   0  0  0  0  0  0  0  0  0  0  0  0
   -2.0779    0.5468   -0.1639 O   0  0  0  0  0  0  0  0  0  0  0  0
    1.6447    3.3893    0.0092 N   0  0  0  0  0  0  0  0  0  0  0  0
    3.4329    2.0513    0.0568 N   0  0  0  0  0  0  0  0  0  0  0  0
   -0.6770    0.5528   -0.1126 N   0  0  0  0  0  0  0  0  0  0  0  0
    1.1404    2.1254   -0.0255 C   0  0  0  0  0  0  0  0  0  0  0  0
    2.2635    1.3305    0.0050 C   0  0  0  0  0  0  0  0  0  0  0  0
    3.0012    3.2817    0.0569 C   0  0  0  0  0  0  0  0  0  0  0  0
    1.1498    4.6717    0.0080 C   0  0  0  0  0  0  0  0  0  0  0  0
    4.0801   -0.7217    0.0442 C   0  0  0  0  0  0  0  0  0  0  0  0
    4.4277   -2.1721    0.0380 C   0  0  0  0  0  0  0  0  0  0  0  0
   -0.2462    1.7858   -0.0803 C   0  0  0  0  0  0  0  0  0  0  0  0
    2.1392    5.5799    0.0558 C   0  0  0  0  0  0  0  0  0  0  0  0
   -4.0114   -0.8356   -0.2533 C   0  0  0  0  0  0  0  0  0  0  0  0
    4.6343   -2.8345   -1.1723 C   0  0  0  0  0  0  0  0  0  0  0  0
    4.5469   -2.8662    1.2420 C   0  0  0  0  0  0  0  0  0  0  0  0
   -2.5122   -0.8043   -0.1980 C   0  0  0  0  0  0  0  0  0  0  0  0
    4.9597   -4.1908   -1.1784 C   0  0  0  0  0  0  0  0  0  0  0  0
    4.8724   -4.2226    1.2359 C   0  0  0  0  0  0  0  0  0  0  0  0
   -4.7431   -0.8644    0.9286 C   0  0  0  0  0  0  0  0  0  0  0  0
   -4.6551   -0.8336   -1.4856 C   0  0  0  0  0  0  0  0  0  0  0  0
    5.0787   -4.8848    0.0256 C   0  0  0  0  0  0  0  0  0  0  0  0
   -6.1368   -0.8917    0.8774 C   0  0  0  0  0  0  0  0  0  0  0  0
   -6.0486   -0.8609   -1.5368 C   0  0  0  0  0  0  0  0  0  0  0  0
   -6.7895   -0.8898   -0.3554 C   0  0  0  0  0  0  0  0  0  0  0  0
    0.0897    4.8706   -0.0278 H   0  0  0  0  0  0  0  0  0  0  0  0
    4.4917   -0.2504    0.9451 H   0  0  0  0  0  0  0  0  0  0  0  0
    4.5556   -0.2274   -0.8117 H   0  0  0  0  0  0  0  0  0  0  0  0
   -0.9757    2.6156   -0.0958 H   0  0  0  0  0  0  0  0  0  0  0  0
    2.0020    6.6520    0.0649 H   0  0  0  0  0  0  0  0  0  0  0  0
    4.5437   -2.3060   -2.1177 H   0  0  0  0  0  0  0  0  0  0  0  0
    4.3877   -2.3627    2.1919 H   0  0  0  0  0  0  0  0  0  0  0  0
   -2.1528   -1.3344    0.6931 H   0  0  0  0  0  0  0  0  0  0  0  0
   -2.0887   -1.3101   -1.0751 H   0  0  0  0  0  0  0  0  0  0  0  0
   -4.2280   -0.8636    1.8865 H   0  0  0  0  0  0  0  0  0  0  0  0
   -4.0877   -0.8087   -2.4119 H   0  0  0  0  0  0  0  0  0  0  0  0
    5.1201   -4.7067   -2.1206 H   0  0  0  0  0  0  0  0  0  0  0  0
    4.9648   -4.7633    2.1733 H   0  0  0  0  0  0  0  0  0  0  0  0
    5.3319   -5.9410    0.0209 H   0  0  0  0  0  0  0  0  0  0  0  0
   -6.5408   -0.8586   -2.5062 H   0  0  0  0  0  0  0  0  0  0  0  0
  1 26  1  0  0  0  0
  2 28  1  0  0  0  0
  3 10  1  0  0  0  0
  3 13  1  0  0  0  0
  4 11  1  0  0  0  0
  4 16  1  0  0  0  0
  5  8  1  0  0  0  0
  5 20  1  0  0  0  0
  6  9  1  0  0  0  0
  6 11  1  0  0  0  0
  6 12  1  0  0  0  0
  7 10  1  0  0  0  0
  7 11  2  0  0  0  0
  8 15  2  3  0  0  0
  9 10  2  0  0  0  0
  9 15  1  0  0  0  0
 12 16  2  0  0  0  0
 12 29  1  0  0  0  0
 13 14  1  0  0  0  0
 13 30  1  0  0  0  0
 13 31  1  0  0  0  0
 14 18  2  0  0  0  0
 14 19  1  0  0  0  0
 15 32  1  0  0  0  0
 16 33  1  0  0  0  0
 17 20  1  0  0  0  0
 17 23  2  0  0  0  0
 17 24  1  0  0  0  0
 18 21  1  0  0  0  0
 18 34  1  0  0  0  0
 19 22  2  0  0  0  0
 19 35  1  0  0  0  0
 20 36  1  0  0  0  0
 20 37  1  0  0  0  0
 21 25  2  0  0  0  0
 21 40  1  0  0  0  0
 22 25  1  0  0  0  0
 22 41  1  0  0  0  0
 23 26  1  0  0  0  0
 23 38  1  0  0  0  0
 24 27  2  0  0  0  0
 24 39  1  0  0  0  0
 25 42  1  0  0  0  0
 26 28  2  0  0  0  0
 27 28  1  0  0  0  0
 27 43  1  0  0  0  0
M  END
> <PUBCHEM_COMPOUND_CID>
3816731

> <PUBCHEM_CONFORMER_RMSD>
1

> <PUBCHEM_CONFORMER_DIVERSEORDER>
1
205
109
23
50
2
56
303
127
68
6
283
194
300
309
192
229
60
323
186
3
295
79
298
188
159
273
258
10
97
110
280
195
18
89
286
162
292
268
312
14
269
291
48
119
117
40
276
252
266
313
208
92
139
189
256
274
128
131
242
238
317
220
130
5
243
255
175
122
16
278
96
39
90
294
8
76
137
135
153
184
248
49
165
181
142
288
270
293
19
173
29
160
253
330
210
103
144
167
343
237
7
156
236
169
112
179
334
212
63
244
289
224
322
314
182
45
325
319
338
134
321
260
296
72
151
65
59
320
178
264
257
204
333
301
213
245
120
262
206
324
99
148
126
215
170
318
198
9
311
209
176
341
73
15
25
261
302
207
327
172
44
140
35
116
342
80
4
225
174
55
57
265
78
150
315
306
214
161
27
267
230
28
282
30
113
115
124
335
24
275
168
42
53
234
328
246
61
235
155
305
136
147
11
51
271
129
304
197
297
104
88
77
185
299
332
344
98
310
38
32
33
211
83
240
37
201
217
36
114
329
340
100
254
164
106
101
86
21
105
20
339
43
54
287
203
200
190
121
91
216
17
191
337
177
281
259
133
66
290
52
284
145
223
107
62
93
331
34
118
226
199
123
87
71
154
12
143
111
279
277
233
221
85
41
158
46
250
31
231
64
232
75
263
251
272
81
249
336
13
187
149
47
163
69
241
228
146
285
193
166
247
326
222
196
22
308
84
307
102
74
108
202
180
58
26
95
82
67
70
239
152
227
316
141
218
183
219
138
171
94
125
157
132

> <PUBCHEM_MMFF94_PARTIAL_CHARGES>
39
1 -0.18
10 0.28
11 0.24
12 -0.18
13 0.37
14 -0.14
15 0.47
16 -0.05
17 -0.14
18 -0.15
19 -0.15
2 -0.18
20 0.42
21 -0.15
22 -0.15
23 -0.15
24 -0.15
25 -0.15
26 0.18
27 -0.15
28 0.18
29 0.15
3 -0.28
32 0.06
33 0.15
34 0.15
35 0.15
38 0.15
39 0.15
4 -0.16
40 0.15
41 0.15
42 0.15
43 0.15
5 -0.22
6 0.33
7 -0.57
8 -0.51
9 -0.24

> <PUBCHEM_EFFECTIVE_ROTOR_COUNT>
7

> <PUBCHEM_PHARMACOPHORE_FEATURES>
6
1 8 acceptor
3 6 7 11 cation
5 4 6 11 12 16 rings
5 6 7 9 10 11 rings
6 14 18 19 21 22 25 rings
6 17 23 24 26 27 28 rings

> <PUBCHEM_HEAVY_ATOM_COUNT>
28

> <PUBCHEM_ATOM_DEF_STEREO_COUNT>
0

> <PUBCHEM_ATOM_UDEF_STEREO_COUNT>
0

> <PUBCHEM_BOND_DEF_STEREO_COUNT>
0

> <PUBCHEM_BOND_UDEF_STEREO_COUNT>
1

> <PUBCHEM_ISOTOPIC_ATOM_COUNT>
0

> <PUBCHEM_COMPONENT_COUNT>
1

> <PUBCHEM_CACTVS_TAUTO_COUNT>
1

> <PUBCHEM_CONFORMER_ID>
003A3D1B00000001

> <PUBCHEM_MMFF94_ENERGY>
60.7063

> <PUBCHEM_FEATURE_SELFOVERLAP>
30.703

> <PUBCHEM_SHAPE_FINGERPRINT>
10319688 140 18409730686141216804
10411042 1 18339077061072624950
10622 236 18271250426100788961
11059845 2 17057260847612713137
11763715 3 18121240692365069204
12107183 9 18199199395163532745
12342043 65 18040158422676412039
13248334 5 18339360885476022468
13533116 47 18411138073756613049
13782708 43 18040433292078428091
13785724 45 18270126707994939374
13911852 28 18339078181536817382
13955234 65 18339360897933429448
15274700 232 17620481207621979111
15400415 2 17762336216450700397
15467298 65 17912912070696411327
15484559 13 18198071472759526220
16992752 21 18195255417348774038
19311894 1 17977382729110865952
19319366 153 17984418808933490532
21130935 74 18336551633836591995
21133410 58 18338784672558505959
21639891 77 18118961386821379797
22033318 11 17985014555889843849
22311459 1 18339079410451774100
2303208 19 17676492774399525227
23569914 152 17761173693889657591
249057 25 17775570854073957379
255183 451 18271813376407423742
32027 91 18408319986969242267
394071 54 18340762732430152730
4073 2 18047471411851398995
5309563 4 18267302024111467030
5372103 7 16372156471475616598
613672 6 18121754189754047894
6695519 79 17476660031621607329
6697151 62 18193531446902133471
6700243 42 17412210667902308110
70251023 43 18408322159847953120
77188 2 18338796715683116084
86090 222 17458632236935386947
9962374 69 18340195380119993455

> <PUBCHEM_SHAPE_MULTIPOLES>
566.85
19.88
7.92
1.29
43.39
6.58
-0.33
-21.08
-1.1
-22.78
-0.31
1.88
-1.13
0.15

> <PUBCHEM_SHAPE_SELFOVERLAP>
1186.827

> <PUBCHEM_SHAPE_VOLUME>
325.1

> <PUBCHEM_COORDINATE_TYPE>
2
5
10

