4300847
  -OEChem-06302411133D

 39 42  0     0  0  0  0  0  0999 V2000
    3.5606   -0.1553   -2.5602 Cl  0  0  0  0  0  0  0  0  0  0  0  0
    7.8114    1.3690    0.3687 Cl  0  0  0  0  0  0  0  0  0  0  0  0
   -5.7032    2.5024   -0.0437 S   0  0  0  0  0  0  0  0  0  0  0  0
    1.2669    0.5101    0.1114 O   0  0  0  0  0  0  0  0  0  0  0  0
   -3.2170    1.8753    0.0097 N   0  0  0  0  0  0  0  0  0  0  0  0
   -4.4245   -0.0042    0.0016 N   0  0  0  0  0  0  0  0  0  0  0  0
   -0.0491    0.0275    0.0888 N   0  0  0  0  0  0  0  0  0  0  0  0
   -2.3017    0.8682    0.0356 C   0  0  0  0  0  0  0  0  0  0  0  0
   -3.0720   -0.2809    0.0301 C   0  0  0  0  0  0  0  0  0  0  0  0
   -4.4507    1.2995   -0.0093 C   0  0  0  0  0  0  0  0  0  0  0  0
   -2.5509   -1.6192    0.0514 C   0  0  0  0  0  0  0  0  0  0  0  0
   -3.2024    3.2498   -0.0014 C   0  0  0  0  0  0  0  0  0  0  0  0
   -0.8828    1.0330    0.0626 C   0  0  0  0  0  0  0  0  0  0  0  0
   -4.4477    3.7541   -0.0298 C   0  0  0  0  0  0  0  0  0  0  0  0
   -2.3216   -2.2589    1.2696 C   0  0  0  0  0  0  0  0  0  0  0  0
   -2.2744   -2.2792   -1.1458 C   0  0  0  0  0  0  0  0  0  0  0  0
    3.5620   -0.1118    0.1642 C   0  0  0  0  0  0  0  0  0  0  0  0
   -1.8157   -3.5586    1.2905 C   0  0  0  0  0  0  0  0  0  0  0  0
   -1.7686   -3.5790   -1.1250 C   0  0  0  0  0  0  0  0  0  0  0  0
    2.1450   -0.6049    0.1396 C   0  0  0  0  0  0  0  0  0  0  0  0
   -1.5393   -4.2187    0.0932 C   0  0  0  0  0  0  0  0  0  0  0  0
    4.2717    0.1159   -1.0111 C   0  0  0  0  0  0  0  0  0  0  0  0
    4.1565    0.1150    1.4023 C   0  0  0  0  0  0  0  0  0  0  0  0
    5.5875    0.5743   -0.9480 C   0  0  0  0  0  0  0  0  0  0  0  0
    5.4722    0.5734    1.4651 C   0  0  0  0  0  0  0  0  0  0  0  0
    6.1879    0.8030    0.2900 C   0  0  0  0  0  0  0  0  0  0  0  0
   -2.2784    3.8073    0.0118 H   0  0  0  0  0  0  0  0  0  0  0  0
   -0.4880    2.0650    0.0613 H   0  0  0  0  0  0  0  0  0  0  0  0
   -4.6946    4.8062   -0.0433 H   0  0  0  0  0  0  0  0  0  0  0  0
   -2.5319   -1.7581    2.2117 H   0  0  0  0  0  0  0  0  0  0  0  0
   -2.4474   -1.7944   -2.1037 H   0  0  0  0  0  0  0  0  0  0  0  0
    1.9434   -1.1978    1.0420 H   0  0  0  0  0  0  0  0  0  0  0  0
    1.9512   -1.2704   -0.7093 H   0  0  0  0  0  0  0  0  0  0  0  0
   -1.6367   -4.0566    2.2389 H   0  0  0  0  0  0  0  0  0  0  0  0
   -1.5529   -4.0929   -2.0572 H   0  0  0  0  0  0  0  0  0  0  0  0
   -1.1451   -5.2305    0.1094 H   0  0  0  0  0  0  0  0  0  0  0  0
    3.6103   -0.0569    2.3259 H   0  0  0  0  0  0  0  0  0  0  0  0
    6.1471    0.7542   -1.8636 H   0  0  0  0  0  0  0  0  0  0  0  0
    5.9271    0.7481    2.4369 H   0  0  0  0  0  0  0  0  0  0  0  0
  1 22  1  0  0  0  0
  2 26  1  0  0  0  0
  3 10  1  0  0  0  0
  3 14  1  0  0  0  0
  4  7  1  0  0  0  0
  4 20  1  0  0  0  0
  5  8  1  0  0  0  0
  5 10  1  0  0  0  0
  5 12  1  0  0  0  0
  6  9  1  0  0  0  0
  6 10  2  0  0  0  0
  7 13  2  3  0  0  0
  8  9  2  0  0  0  0
  8 13  1  0  0  0  0
  9 11  1  0  0  0  0
 11 15  2  0  0  0  0
 11 16  1  0  0  0  0
 12 14  2  0  0  0  0
 12 27  1  0  0  0  0
 13 28  1  0  0  0  0
 14 29  1  0  0  0  0
 15 18  1  0  0  0  0
 15 30  1  0  0  0  0
 16 19  2  0  0  0  0
 16 31  1  0  0  0  0
 17 20  1  0  0  0  0
 17 22  2  0  0  0  0
 17 23  1  0  0  0  0
 18 21  2  0  0  0  0
 18 34  1  0  0  0  0
 19 21  1  0  0  0  0
 19 35  1  0  0  0  0
 20 32  1  0  0  0  0
 20 33  1  0  0  0  0
 21 36  1  0  0  0  0
 22 24  1  0  0  0  0
 23 25  2  0  0  0  0
 23 37  1  0  0  0  0
 24 26  2  0  0  0  0
 24 38  1  0  0  0  0
 25 26  1  0  0  0  0
 25 39  1  0  0  0  0
M  END
> <PUBCHEM_COMPOUND_CID>
4300847

> <PUBCHEM_CONFORMER_RMSD>
0.8

> <PUBCHEM_CONFORMER_DIVERSEORDER>
1
22
78
23
49
72
35
76
4
5
80
74
48
13
69
29
14
34
19
21
6
77
16
55
18
57
54
56
43
24
38
15
8
10
30
2
39
32
9
75
61
64
17
47
31
58
59
36
28
7
3
20
37
46
63
41
42
45
33
26
71
27
60
68
52
25
67
51
73
40
53
12
65
79
11
62
44
70
66
50

> <PUBCHEM_MMFF94_PARTIAL_CHARGES>
37
1 -0.18
10 0.24
11 0.05
12 -0.18
13 0.47
14 -0.05
15 -0.15
16 -0.15
17 -0.14
18 -0.15
19 -0.15
2 -0.18
20 0.42
21 -0.15
22 0.18
23 -0.15
24 -0.15
25 -0.15
26 0.18
27 0.15
28 0.06
29 0.15
3 -0.16
30 0.15
31 0.15
34 0.15
35 0.15
36 0.15
37 0.15
38 0.15
39 0.15
4 -0.22
5 0.33
6 -0.57
7 -0.51
8 -0.24
9 0.17

> <PUBCHEM_EFFECTIVE_ROTOR_COUNT>
5

> <PUBCHEM_PHARMACOPHORE_FEATURES>
6
1 7 acceptor
3 5 6 10 cation
5 3 5 10 12 14 rings
5 5 6 8 9 10 rings
6 11 15 16 18 19 21 rings
6 17 22 23 24 25 26 rings

> <PUBCHEM_HEAVY_ATOM_COUNT>
26

> <PUBCHEM_ATOM_DEF_STEREO_COUNT>
0

> <PUBCHEM_ATOM_UDEF_STEREO_COUNT>
0

> <PUBCHEM_BOND_DEF_STEREO_COUNT>
0

> <PUBCHEM_BOND_UDEF_STEREO_COUNT>
1

> <PUBCHEM_ISOTOPIC_ATOM_COUNT>
0

> <PUBCHEM_COMPONENT_COUNT>
1

> <PUBCHEM_CACTVS_TAUTO_COUNT>
1

> <PUBCHEM_CONFORMER_ID>
0041A02F00000001

> <PUBCHEM_MMFF94_ENERGY>
64.1217

> <PUBCHEM_FEATURE_SELFOVERLAP>
30.701

> <PUBCHEM_SHAPE_FINGERPRINT>
10190206 1 18271507746988438197
10411042 1 17906169904254970923
105312 117 18411136905377705485
10675989 125 17765721226068214768
107951 10 18340773654590365871
11135609 187 18262503790223275141
12107183 9 18117827816783727330
12616971 3 16877946066337011588
12788726 201 17898590901478734275
14251757 5 18411987978590501656
14659021 117 18052806233342531610
14790565 3 18194683670484711137
14844126 61 18264489657834893355
15131766 46 15504372450184790126
15183329 4 12966858957656732308
15463212 79 18261384529639156419
17844677 252 18268994357595922296
17980427 23 17749672999916017998
19319366 153 17603582976433264112
20511986 3 17749658645671603816
20554085 129 18126826232671994865
21033648 29 18341061709135109789
21424621 283 18200319788711435273
23366157 5 17539979369173420635
23559900 14 18271819977940975766
23728640 28 18409166649487619483
3298306 158 18198345061437666159
3383291 50 18338518646673701435
3411729 13 17975133146307037225
4015057 19 16917342653848636064
4073 2 18408887361139515506
44249763 50 17916571168230741936
497634 4 16009319836673138707
508706 21 18201154463917826126
5219985 13 18264486179127518269
5364581 5 18054496183104807632
58260988 114 16226341420668187115
7288768 16 17894914005677919571
9981440 41 18335426704085611971

> <PUBCHEM_SHAPE_MULTIPOLES>
521.84
15.84
4.49
1.37
26.24
2.99
0.49
-13.32
-1.11
-9.48
-0.21
1.73
0.62
0.53

> <PUBCHEM_SHAPE_SELFOVERLAP>
1118.647

> <PUBCHEM_SHAPE_VOLUME>
293.1

> <PUBCHEM_COORDINATE_TYPE>
2
5
10

