5880691
  -OEChem-06302411133D

 39 42  0     0  0  0  0  0  0999 V2000
   -0.9885    5.5863   -0.0810 Cl  0  0  0  0  0  0  0  0  0  0  0  0
    3.5952   -0.0030    2.5634 Cl  0  0  0  0  0  0  0  0  0  0  0  0
    7.8748   -1.4242   -0.3753 Cl  0  0  0  0  0  0  0  0  0  0  0  0
   -5.6141   -2.8315    0.0331 S   0  0  0  0  0  0  0  0  0  0  0  0
    1.3144   -0.6985   -0.1117 O   0  0  0  0  0  0  0  0  0  0  0  0
   -3.1410   -2.1543   -0.0170 N   0  0  0  0  0  0  0  0  0  0  0  0
   -4.3860   -0.2995    0.0024 N   0  0  0  0  0  0  0  0  0  0  0  0
   -0.0109   -0.2426   -0.0860 N   0  0  0  0  0  0  0  0  0  0  0  0
   -2.2461   -1.1288   -0.0372 C   0  0  0  0  0  0  0  0  0  0  0  0
   -3.0393    0.0047   -0.0247 C   0  0  0  0  0  0  0  0  0  0  0  0
   -4.3860   -1.6035    0.0056 C   0  0  0  0  0  0  0  0  0  0  0  0
   -2.5453    1.3530   -0.0382 C   0  0  0  0  0  0  0  0  0  0  0  0
   -3.0987   -3.5282   -0.0141 C   0  0  0  0  0  0  0  0  0  0  0  0
   -0.8243   -1.2649   -0.0655 C   0  0  0  0  0  0  0  0  0  0  0  0
   -4.3337   -4.0575    0.0116 C   0  0  0  0  0  0  0  0  0  0  0  0
   -2.3294    2.0045   -1.2525 C   0  0  0  0  0  0  0  0  0  0  0  0
   -2.2802    2.0108    1.1629 C   0  0  0  0  0  0  0  0  0  0  0  0
   -1.8480    3.3136   -1.2656 C   0  0  0  0  0  0  0  0  0  0  0  0
   -1.7989    3.3200    1.1497 C   0  0  0  0  0  0  0  0  0  0  0  0
    3.5966   -0.0303   -0.1611 C   0  0  0  0  0  0  0  0  0  0  0  0
    2.1700    0.4340   -0.1334 C   0  0  0  0  0  0  0  0  0  0  0  0
   -1.5829    3.9713   -0.0646 C   0  0  0  0  0  0  0  0  0  0  0  0
    4.3111   -0.2506    1.0126 C   0  0  0  0  0  0  0  0  0  0  0  0
    4.1951   -0.2378   -1.4007 C   0  0  0  0  0  0  0  0  0  0  0  0
    5.6358   -0.6822    0.9465 C   0  0  0  0  0  0  0  0  0  0  0  0
    5.5198   -0.6693   -1.4666 C   0  0  0  0  0  0  0  0  0  0  0  0
    6.2403   -0.8915   -0.2929 C   0  0  0  0  0  0  0  0  0  0  0  0
   -2.1637   -4.0669   -0.0308 H   0  0  0  0  0  0  0  0  0  0  0  0
   -0.4087   -2.2888   -0.0704 H   0  0  0  0  0  0  0  0  0  0  0  0
   -4.5594   -5.1145    0.0189 H   0  0  0  0  0  0  0  0  0  0  0  0
   -2.5308    1.5054   -2.1975 H   0  0  0  0  0  0  0  0  0  0  0  0
   -2.4428    1.5166    2.1180 H   0  0  0  0  0  0  0  0  0  0  0  0
   -1.6839    3.8086   -2.2193 H   0  0  0  0  0  0  0  0  0  0  0  0
   -1.5962    3.8199    2.0934 H   0  0  0  0  0  0  0  0  0  0  0  0
    1.9631    1.0905    0.7196 H   0  0  0  0  0  0  0  0  0  0  0  0
    1.9562    1.0282   -1.0322 H   0  0  0  0  0  0  0  0  0  0  0  0
    3.6453   -0.0714   -2.3231 H   0  0  0  0  0  0  0  0  0  0  0  0
    6.1992   -0.8562    1.8609 H   0  0  0  0  0  0  0  0  0  0  0  0
    5.9777   -0.8290   -2.4395 H   0  0  0  0  0  0  0  0  0  0  0  0
  1 22  1  0  0  0  0
  2 23  1  0  0  0  0
  3 27  1  0  0  0  0
  4 11  1  0  0  0  0
  4 15  1  0  0  0  0
  5  8  1  0  0  0  0
  5 21  1  0  0  0  0
  6  9  1  0  0  0  0
  6 11  1  0  0  0  0
  6 13  1  0  0  0  0
  7 10  1  0  0  0  0
  7 11  2  0  0  0  0
  8 14  2  0  0  0  0
  9 10  2  0  0  0  0
  9 14  1  0  0  0  0
 10 12  1  0  0  0  0
 12 16  2  0  0  0  0
 12 17  1  0  0  0  0
 13 15  2  0  0  0  0
 13 28  1  0  0  0  0
 14 29  1  0  0  0  0
 15 30  1  0  0  0  0
 16 18  1  0  0  0  0
 16 31  1  0  0  0  0
 17 19  2  0  0  0  0
 17 32  1  0  0  0  0
 18 22  2  0  0  0  0
 18 33  1  0  0  0  0
 19 22  1  0  0  0  0
 19 34  1  0  0  0  0
 20 21  1  0  0  0  0
 20 23  2  0  0  0  0
 20 24  1  0  0  0  0
 21 35  1  0  0  0  0
 21 36  1  0  0  0  0
 23 25  1  0  0  0  0
 24 26  2  0  0  0  0
 24 37  1  0  0  0  0
 25 27  2  0  0  0  0
 25 38  1  0  0  0  0
 26 27  1  0  0  0  0
 26 39  1  0  0  0  0
M  END
> <PUBCHEM_COMPOUND_CID>
5880691

> <PUBCHEM_CONFORMER_RMSD>
0.8

> <PUBCHEM_CONFORMER_DIVERSEORDER>
1
84
50
22
13
12
71
21
10
35
38
9
6
79
25
58
28
27
41
77
47
30
56
51
78
61
53
52
73
39
4
57
26
62
66
68
54
44
33
14
85
29
16
8
34
43
17
80
5
42
82
36
2
15
18
70
23
40
46
67
49
55
37
59
81
74
19
83
3
45
76
24
20
64
48
31
69
60
11
63
75
32
7
72
65

> <PUBCHEM_MMFF94_PARTIAL_CHARGES>
37
1 -0.18
10 0.17
11 0.24
12 0.05
13 -0.18
14 0.47
15 -0.05
16 -0.15
17 -0.15
18 -0.15
19 -0.15
2 -0.18
20 -0.14
21 0.42
22 0.18
23 0.18
24 -0.15
25 -0.15
26 -0.15
27 0.18
28 0.15
29 0.06
3 -0.18
30 0.15
31 0.15
32 0.15
33 0.15
34 0.15
37 0.15
38 0.15
39 0.15
4 -0.16
5 -0.22
6 0.33
7 -0.57
8 -0.51
9 -0.24

> <PUBCHEM_EFFECTIVE_ROTOR_COUNT>
5

> <PUBCHEM_PHARMACOPHORE_FEATURES>
6
1 8 acceptor
3 6 7 11 cation
5 4 6 11 13 15 rings
5 6 7 9 10 11 rings
6 12 16 17 18 19 22 rings
6 20 23 24 25 26 27 rings

> <PUBCHEM_HEAVY_ATOM_COUNT>
27

> <PUBCHEM_ATOM_DEF_STEREO_COUNT>
0

> <PUBCHEM_ATOM_UDEF_STEREO_COUNT>
0

> <PUBCHEM_BOND_DEF_STEREO_COUNT>
1

> <PUBCHEM_BOND_UDEF_STEREO_COUNT>
0

> <PUBCHEM_ISOTOPIC_ATOM_COUNT>
0

> <PUBCHEM_COMPONENT_COUNT>
1

> <PUBCHEM_CACTVS_TAUTO_COUNT>
1

> <PUBCHEM_CONFORMER_ID>
0059BB7300000001

> <PUBCHEM_MMFF94_ENERGY>
64.8261

> <PUBCHEM_FEATURE_SELFOVERLAP>
30.701

> <PUBCHEM_SHAPE_FINGERPRINT>
100830 39 18338797811194707940
10411042 1 18338800147282643367
10670039 82 18408321060695014650
10937287 8 17546163004729534181
11014199 57 18410296930161084948
11056379 131 18337674118083332468
11059845 2 17615380603862202256
11434127 23 18128810838285875828
11545043 162 18201434758279423882
11552529 35 18334852767231398308
11796584 16 18197218037046275566
12107183 9 17540525830605195698
12166972 35 17749673012194537935
12342043 65 17846510235695810350
12788726 201 18187358809924763755
13009979 54 18260558852278227260
13782708 43 17846779633098098614
14068700 675 18261111910805811036
14347332 77 18409167710154468454
14713325 29 18342181011850483062
14910302 57 18129118739584247110
15021287 119 17095817504000977716
15042514 8 18411420626770192959
15419008 47 18060138760676578752
15876981 60 18260839202068601964
15961568 22 18194677288585666192
17686467 74 18338232791135816736
17844677 252 18411142433559836100
21033648 29 17346301671340120418
21033650 10 18118430379267615262
21065201 7 18343016649995108290
21796203 349 17829648224082736955
2297311 6 18411985783957275563
23366157 5 17539965500671137853
23557571 272 18343310253553138279
23559900 14 18267861855569802705
3886686 26 17688564101380104498
4409770 3 18261946359307753069
469060 322 18339092535581187377
508706 21 18200019634863918672
59755656 215 18342174436298335767
6700243 42 17913245076721270748
9981440 41 17831296099912973977

> <PUBCHEM_SHAPE_MULTIPOLES>
544.29
15.26
5.67
1.34
27.9
6.65
0.49
-14.96
-1.13
-10.99
-0.27
1.69
0.46
0.44

> <PUBCHEM_SHAPE_SELFOVERLAP>
1157.706

> <PUBCHEM_SHAPE_VOLUME>
309.1

> <PUBCHEM_COORDINATE_TYPE>
2
5
10

