5901311
  -OEChem-06302411133D

 42 45  0     0  0  0  0  0  0999 V2000
    3.5985    0.0096    2.5633 Cl  0  0  0  0  0  0  0  0  0  0  0  0
    7.8799   -1.4079   -0.3750 Cl  0  0  0  0  0  0  0  0  0  0  0  0
   -5.6075   -2.8298    0.0339 S   0  0  0  0  0  0  0  0  0  0  0  0
    1.3186   -0.6894   -0.1116 O   0  0  0  0  0  0  0  0  0  0  0  0
   -3.1353   -2.1499   -0.0164 N   0  0  0  0  0  0  0  0  0  0  0  0
   -4.3822   -0.2965    0.0023 N   0  0  0  0  0  0  0  0  0  0  0  0
   -0.0072   -0.2349   -0.0860 N   0  0  0  0  0  0  0  0  0  0  0  0
   -3.0358    0.0094   -0.0248 C   0  0  0  0  0  0  0  0  0  0  0  0
   -2.2415   -1.1234   -0.0369 C   0  0  0  0  0  0  0  0  0  0  0  0
   -2.5434    1.3581   -0.0388 C   0  0  0  0  0  0  0  0  0  0  0  0
   -4.3809   -1.6005    0.0060 C   0  0  0  0  0  0  0  0  0  0  0  0
   -3.0914   -3.5238   -0.0131 C   0  0  0  0  0  0  0  0  0  0  0  0
   -2.3280    2.0093   -1.2533 C   0  0  0  0  0  0  0  0  0  0  0  0
   -2.2802    2.0169    1.1622 C   0  0  0  0  0  0  0  0  0  0  0  0
   -0.8195   -1.2580   -0.0652 C   0  0  0  0  0  0  0  0  0  0  0  0
   -1.5865    3.9784   -0.0657 C   0  0  0  0  0  0  0  0  0  0  0  0
   -4.3258   -4.0545    0.0127 C   0  0  0  0  0  0  0  0  0  0  0  0
   -1.8495    3.3195   -1.2667 C   0  0  0  0  0  0  0  0  0  0  0  0
   -1.8019    3.3270    1.1487 C   0  0  0  0  0  0  0  0  0  0  0  0
   -1.0756    5.3792   -0.0800 C   0  0  0  0  0  0  0  0  0  0  0  0
    3.6001   -0.0186   -0.1613 C   0  0  0  0  0  0  0  0  0  0  0  0
    2.1731    0.4441   -0.1336 C   0  0  0  0  0  0  0  0  0  0  0  0
    4.3148   -0.2378    1.0125 C   0  0  0  0  0  0  0  0  0  0  0  0
    4.1988   -0.2259   -1.4007 C   0  0  0  0  0  0  0  0  0  0  0  0
    5.6400   -0.6679    0.9467 C   0  0  0  0  0  0  0  0  0  0  0  0
    5.5240   -0.6559   -1.4665 C   0  0  0  0  0  0  0  0  0  0  0  0
    6.2447   -0.8769   -0.2928 C   0  0  0  0  0  0  0  0  0  0  0  0
   -2.1558   -4.0615   -0.0296 H   0  0  0  0  0  0  0  0  0  0  0  0
   -2.5285    1.5098   -2.1982 H   0  0  0  0  0  0  0  0  0  0  0  0
   -2.4431    1.5231    2.1174 H   0  0  0  0  0  0  0  0  0  0  0  0
   -0.4028   -2.2814   -0.0698 H   0  0  0  0  0  0  0  0  0  0  0  0
   -4.5503   -5.1117    0.0204 H   0  0  0  0  0  0  0  0  0  0  0  0
   -1.6873    3.8169   -2.2192 H   0  0  0  0  0  0  0  0  0  0  0  0
   -1.6023    3.8302    2.0911 H   0  0  0  0  0  0  0  0  0  0  0  0
   -0.4344    5.5748    0.7862 H   0  0  0  0  0  0  0  0  0  0  0  0
   -0.4726    5.5709   -0.9741 H   0  0  0  0  0  0  0  0  0  0  0  0
   -1.9125    6.0845   -0.0635 H   0  0  0  0  0  0  0  0  0  0  0  0
    1.9586    1.0378   -1.0327 H   0  0  0  0  0  0  0  0  0  0  0  0
    1.9654    1.1006    0.7190 H   0  0  0  0  0  0  0  0  0  0  0  0
    3.6488   -0.0605   -2.3232 H   0  0  0  0  0  0  0  0  0  0  0  0
    6.2035   -0.8410    1.8611 H   0  0  0  0  0  0  0  0  0  0  0  0
    5.9821   -0.8155   -2.4392 H   0  0  0  0  0  0  0  0  0  0  0  0
  1 23  1  0  0  0  0
  2 27  1  0  0  0  0
  3 11  1  0  0  0  0
  3 17  1  0  0  0  0
  4  7  1  0  0  0  0
  4 22  1  0  0  0  0
  5  9  1  0  0  0  0
  5 11  1  0  0  0  0
  5 12  1  0  0  0  0
  6  8  1  0  0  0  0
  6 11  2  0  0  0  0
  7 15  2  0  0  0  0
  8  9  2  0  0  0  0
  8 10  1  0  0  0  0
  9 15  1  0  0  0  0
 10 13  2  0  0  0  0
 10 14  1  0  0  0  0
 12 17  2  0  0  0  0
 12 28  1  0  0  0  0
 13 18  1  0  0  0  0
 13 29  1  0  0  0  0
 14 19  2  0  0  0  0
 14 30  1  0  0  0  0
 15 31  1  0  0  0  0
 16 18  2  0  0  0  0
 16 19  1  0  0  0  0
 16 20  1  0  0  0  0
 17 32  1  0  0  0  0
 18 33  1  0  0  0  0
 19 34  1  0  0  0  0
 20 35  1  0  0  0  0
 20 36  1  0  0  0  0
 20 37  1  0  0  0  0
 21 22  1  0  0  0  0
 21 23  2  0  0  0  0
 21 24  1  0  0  0  0
 22 38  1  0  0  0  0
 22 39  1  0  0  0  0
 23 25  1  0  0  0  0
 24 26  2  0  0  0  0
 24 40  1  0  0  0  0
 25 27  2  0  0  0  0
 25 41  1  0  0  0  0
 26 27  1  0  0  0  0
 26 42  1  0  0  0  0
M  END
> <PUBCHEM_COMPOUND_CID>
5901311

> <PUBCHEM_CONFORMER_RMSD>
0.8

> <PUBCHEM_CONFORMER_DIVERSEORDER>
1
79
49
11
22
20
54
21
13
36
29
25
72
71
14
4
28
67
19
18
10
38
7
5
62
37
53
52
43
59
2
42
77
64
27
41
30
6
44
9
65
50
35
8
32
74
55
26
51
57
70
78
16
3
63
75
17
23
58
34
39
66
56
73
15
61
46
33
60
76
69
24
12
31
48
47
68
45
40

> <PUBCHEM_MMFF94_PARTIAL_CHARGES>
37
1 -0.18
10 0.05
11 0.24
12 -0.18
13 -0.15
14 -0.15
15 0.47
16 -0.14
17 -0.05
18 -0.15
19 -0.15
2 -0.18
20 0.14
21 -0.14
22 0.42
23 0.18
24 -0.15
25 -0.15
26 -0.15
27 0.18
28 0.15
29 0.15
3 -0.16
30 0.15
31 0.06
32 0.15
33 0.15
34 0.15
4 -0.22
40 0.15
41 0.15
42 0.15
5 0.33
6 -0.57
7 -0.51
8 0.17
9 -0.24

> <PUBCHEM_EFFECTIVE_ROTOR_COUNT>
5

> <PUBCHEM_PHARMACOPHORE_FEATURES>
6
1 7 acceptor
3 5 6 11 cation
5 3 5 11 12 17 rings
5 5 6 8 9 11 rings
6 10 13 14 16 18 19 rings
6 21 23 24 25 26 27 rings

> <PUBCHEM_HEAVY_ATOM_COUNT>
27

> <PUBCHEM_ATOM_DEF_STEREO_COUNT>
0

> <PUBCHEM_ATOM_UDEF_STEREO_COUNT>
0

> <PUBCHEM_BOND_DEF_STEREO_COUNT>
1

> <PUBCHEM_BOND_UDEF_STEREO_COUNT>
0

> <PUBCHEM_ISOTOPIC_ATOM_COUNT>
0

> <PUBCHEM_COMPONENT_COUNT>
1

> <PUBCHEM_CACTVS_TAUTO_COUNT>
1

> <PUBCHEM_CONFORMER_ID>
005A0BFF00000001

> <PUBCHEM_MMFF94_ENERGY>
66.6533

> <PUBCHEM_FEATURE_SELFOVERLAP>
30.701

> <PUBCHEM_SHAPE_FINGERPRINT>
100830 39 18338797811199976196
10411042 1 18338518672321763463
10670039 82 18408322160217178938
10937287 8 17618220603072972413
11056379 131 18337674122399405244
11059845 2 17615379504345319224
11434127 23 18057035818746881276
11545043 162 18201434758279423874
11552529 35 18334852771526352604
11796584 16 18197218037051543830
12107183 9 17612865999131455578
12166972 35 17749673012189250183
12342043 65 17846510235701078606
12788726 201 18187358814209201035
13009979 54 18260558852267664764
13782708 43 17846779633092810870
14068700 675 18261111915106066092
14347332 77 18409167710165004958
14713325 29 18341898437367438886
14910302 57 18129118739589502366
15021287 119 17023759909968318052
15042514 8 18411420626759623967
15419008 47 18060138760671297504
15876981 60 18260839202047502932
15961568 22 18194677292875358728
17686467 74 18337952415676028080
17844677 252 18411142433559868588
21033648 29 17346301671334865154
21033650 10 18118430383562576038
21065201 7 18343017749511991330
21796203 349 17829648224082762939
2297311 6 18411985783951987819
23366157 5 17539965500665869597
23557571 272 18343310253553118799
23559900 14 18339919449597187633
3886686 26 17688564101390641018
4015057 19 14345799374180486486
4409770 3 18261946359302491301
469060 322 18339374010489378225
508706 21 18199738159876645520
59755656 215 18342174440593309551
6700243 42 17913243977209623484
9981440 41 17831576479688809441

> <PUBCHEM_SHAPE_MULTIPOLES>
542.42
15.31
5.49
1.35
27.94
5.77
0.49
-14.66
-1.12
-10.89
-0.26
1.69
0.47
0.45

> <PUBCHEM_SHAPE_SELFOVERLAP>
1160.688

> <PUBCHEM_SHAPE_VOLUME>
305.9

> <PUBCHEM_COORDINATE_TYPE>
2
5
10

