5912745
  -OEChem-06302411133D

 39 42  0     0  0  0  0  0  0999 V2000
   -1.2115    5.5962   -0.0520 Cl  0  0  0  0  0  0  0  0  0  0  0  0
    6.3686   -0.8027   -2.3555 Cl  0  0  0  0  0  0  0  0  0  0  0  0
    7.7954   -1.2186    0.5183 Cl  0  0  0  0  0  0  0  0  0  0  0  0
   -5.6563   -2.9191   -0.0910 S   0  0  0  0  0  0  0  0  0  0  0  0
    1.2211   -0.6360    0.1626 O   0  0  0  0  0  0  0  0  0  0  0  0
   -3.1998   -2.1882    0.0025 N   0  0  0  0  0  0  0  0  0  0  0  0
   -4.4824   -0.3613   -0.0859 N   0  0  0  0  0  0  0  0  0  0  0  0
   -0.1126   -0.2092    0.0981 N   0  0  0  0  0  0  0  0  0  0  0  0
   -2.3272   -1.1436    0.0216 C   0  0  0  0  0  0  0  0  0  0  0  0
   -3.1434   -0.0279   -0.0337 C   0  0  0  0  0  0  0  0  0  0  0  0
   -4.4551   -1.6649   -0.0616 C   0  0  0  0  0  0  0  0  0  0  0  0
   -2.6781    1.3307   -0.0382 C   0  0  0  0  0  0  0  0  0  0  0  0
   -3.1287   -3.5607    0.0302 C   0  0  0  0  0  0  0  0  0  0  0  0
   -0.9039   -1.2488    0.0843 C   0  0  0  0  0  0  0  0  0  0  0  0
   -4.3515   -4.1168   -0.0128 C   0  0  0  0  0  0  0  0  0  0  0  0
   -2.4002    1.9687   -1.2470 C   0  0  0  0  0  0  0  0  0  0  0  0
   -2.5028    2.0118    1.1664 C   0  0  0  0  0  0  0  0  0  0  0  0
   -1.9468    3.2878   -1.2511 C   0  0  0  0  0  0  0  0  0  0  0  0
   -2.0495    3.3310    1.1621 C   0  0  0  0  0  0  0  0  0  0  0  0
    3.4872    0.0817    0.2449 C   0  0  0  0  0  0  0  0  0  0  0  0
    2.0523    0.5148    0.1760 C   0  0  0  0  0  0  0  0  0  0  0  0
   -1.7714    3.9689   -0.0467 C   0  0  0  0  0  0  0  0  0  0  0  0
    4.1969   -0.1398   -0.9301 C   0  0  0  0  0  0  0  0  0  0  0  0
    4.0943   -0.0942    1.4833 C   0  0  0  0  0  0  0  0  0  0  0  0
    5.5308   -0.5423   -0.8657 C   0  0  0  0  0  0  0  0  0  0  0  0
    5.4281   -0.4966    1.5477 C   0  0  0  0  0  0  0  0  0  0  0  0
    6.1465   -0.7207    0.3732 C   0  0  0  0  0  0  0  0  0  0  0  0
   -2.1833   -4.0788    0.0805 H   0  0  0  0  0  0  0  0  0  0  0  0
   -0.4673   -2.2631    0.1217 H   0  0  0  0  0  0  0  0  0  0  0  0
   -4.5547   -5.1783   -0.0025 H   0  0  0  0  0  0  0  0  0  0  0  0
   -2.5313    1.4514   -2.1946 H   0  0  0  0  0  0  0  0  0  0  0  0
   -2.7147    1.5284    2.1172 H   0  0  0  0  0  0  0  0  0  0  0  0
   -1.7337    3.7722   -2.2005 H   0  0  0  0  0  0  0  0  0  0  0  0
   -1.9171    3.8492    2.1084 H   0  0  0  0  0  0  0  0  0  0  0  0
    1.8028    1.1447    1.0395 H   0  0  0  0  0  0  0  0  0  0  0  0
    1.8773    1.1119   -0.7280 H   0  0  0  0  0  0  0  0  0  0  0  0
    3.7104   -0.0008   -1.8928 H   0  0  0  0  0  0  0  0  0  0  0  0
    3.5433    0.0757    2.4043 H   0  0  0  0  0  0  0  0  0  0  0  0
    5.8919   -0.6314    2.5216 H   0  0  0  0  0  0  0  0  0  0  0  0
  1 22  1  0  0  0  0
  2 25  1  0  0  0  0
  3 27  1  0  0  0  0
  4 11  1  0  0  0  0
  4 15  1  0  0  0  0
  5  8  1  0  0  0  0
  5 21  1  0  0  0  0
  6  9  1  0  0  0  0
  6 11  1  0  0  0  0
  6 13  1  0  0  0  0
  7 10  1  0  0  0  0
  7 11  2  0  0  0  0
  8 14  2  0  0  0  0
  9 10  2  0  0  0  0
  9 14  1  0  0  0  0
 10 12  1  0  0  0  0
 12 16  2  0  0  0  0
 12 17  1  0  0  0  0
 13 15  2  0  0  0  0
 13 28  1  0  0  0  0
 14 29  1  0  0  0  0
 15 30  1  0  0  0  0
 16 18  1  0  0  0  0
 16 31  1  0  0  0  0
 17 19  2  0  0  0  0
 17 32  1  0  0  0  0
 18 22  2  0  0  0  0
 18 33  1  0  0  0  0
 19 22  1  0  0  0  0
 19 34  1  0  0  0  0
 20 21  1  0  0  0  0
 20 23  2  0  0  0  0
 20 24  1  0  0  0  0
 21 35  1  0  0  0  0
 21 36  1  0  0  0  0
 23 25  1  0  0  0  0
 23 37  1  0  0  0  0
 24 26  2  0  0  0  0
 24 38  1  0  0  0  0
 25 27  2  0  0  0  0
 26 27  1  0  0  0  0
 26 39  1  0  0  0  0
M  END
> <PUBCHEM_COMPOUND_CID>
5912745

> <PUBCHEM_CONFORMER_RMSD>
0.8

> <PUBCHEM_CONFORMER_DIVERSEORDER>
2
58
91
13
84
38
4
18
26
32
83
50
14
20
65
21
22
11
64
56
12
46
19
66
27
36
8
33
80
81
86
73
34
49
51
15
3
25
7
54
77
60
6
85
55
41
76
61
52
88
35
79
37
1
53
90
24
16
42
70
9
63
47
59
62
28
45
44
17
23
40
89
5
29
74
72
78
82
48
68
10
75
30
57
71
87
67
92
43
31
39
69

> <PUBCHEM_MMFF94_PARTIAL_CHARGES>
37
1 -0.18
10 0.17
11 0.24
12 0.05
13 -0.18
14 0.47
15 -0.05
16 -0.15
17 -0.15
18 -0.15
19 -0.15
2 -0.18
20 -0.14
21 0.42
22 0.18
23 -0.15
24 -0.15
25 0.18
26 -0.15
27 0.18
28 0.15
29 0.06
3 -0.18
30 0.15
31 0.15
32 0.15
33 0.15
34 0.15
37 0.15
38 0.15
39 0.15
4 -0.16
5 -0.22
6 0.33
7 -0.57
8 -0.51
9 -0.24

> <PUBCHEM_EFFECTIVE_ROTOR_COUNT>
5

> <PUBCHEM_PHARMACOPHORE_FEATURES>
6
1 8 acceptor
3 6 7 11 cation
5 4 6 11 13 15 rings
5 6 7 9 10 11 rings
6 12 16 17 18 19 22 rings
6 20 23 24 25 26 27 rings

> <PUBCHEM_HEAVY_ATOM_COUNT>
27

> <PUBCHEM_ATOM_DEF_STEREO_COUNT>
0

> <PUBCHEM_ATOM_UDEF_STEREO_COUNT>
0

> <PUBCHEM_BOND_DEF_STEREO_COUNT>
1

> <PUBCHEM_BOND_UDEF_STEREO_COUNT>
0

> <PUBCHEM_ISOTOPIC_ATOM_COUNT>
0

> <PUBCHEM_COMPONENT_COUNT>
1

> <PUBCHEM_CACTVS_TAUTO_COUNT>
1

> <PUBCHEM_CONFORMER_ID>
005A38A900000002

> <PUBCHEM_MMFF94_ENERGY>
64.4059

> <PUBCHEM_FEATURE_SELFOVERLAP>
30.701

> <PUBCHEM_SHAPE_FINGERPRINT>
100830 39 18338511942434889480
10411042 1 18338232803635668027
10670039 82 18336272267139866158
10937287 8 17618499883368887041
11014199 57 18410295834860054276
11056379 131 18410296865324436724
11059845 2 17687437102694071208
11315621 246 18411991251724697110
11434127 23 18128807548298748444
11545043 162 18201997712533041890
12107183 9 17612861601021628138
12166972 35 17677330644660833679
12342043 65 17774734125240286878
12788726 201 18187917366221716835
13009979 54 18260274082982518084
13782708 43 17846780741051928974
14068700 675 18260827141525906748
14117953 113 18411981356626241565
14347332 77 18408885144224338070
14713325 29 18342178821480465659
14910302 57 18200890469194142998
15021287 119 16950852389152426388
15183329 4 17822582621193021638
15419008 47 18060137665423073056
15876981 60 18260555532284507684
15961568 22 18194395817888137544
16087824 20 18337952291528346589
16990350 14 16827565013223932016
16992828 155 17242734178337136836
17686467 74 18337667646433079832
17844677 252 18411139143593866528
21033648 29 17131253693874372818
21033650 10 18118145610035073126
21065201 7 18271805684231869946
21796203 349 17829083070921862675
2297311 6 18412552036851297935
23522609 53 17679042426306357508
23557571 272 18343310257826987055
23559900 14 18049714424426189019
249057 25 17821732724431843358
4409770 3 18261661590112225325
46194498 28 18130790109908686984
469060 322 18411430509389741025
508706 21 18271811155608768148
59755656 215 18342739589554123223
59755656 520 17771644351099485976
6057620 51 18115310119939634646
6700243 42 17984736430834448308
9981440 41 17831575380177246705

> <PUBCHEM_SHAPE_MULTIPOLES>
544.29
16.4
5.7
1.32
32.34
6.38
-0.33
-14.64
-0.92
-12.21
-0.17
2.19
0.31
0.11

> <PUBCHEM_SHAPE_SELFOVERLAP>
1157.199

> <PUBCHEM_SHAPE_VOLUME>
309.2

> <PUBCHEM_COORDINATE_TYPE>
2
5
10

