5929121
  -OEChem-06302411133D

 42 45  0     0  0  0  0  0  0999 V2000
    3.6935   -0.2460    2.7189 Cl  0  0  0  0  0  0  0  0  0  0  0  0
   -5.5958   -2.5809   -0.0012 S   0  0  0  0  0  0  0  0  0  0  0  0
    3.7232   -0.2698   -2.3812 F   0  0  0  0  0  0  0  0  0  0  0  0
    1.4380   -0.8200   -0.0036 O   0  0  0  0  0  0  0  0  0  0  0  0
   -3.0897   -2.0363   -0.0006 N   0  0  0  0  0  0  0  0  0  0  0  0
   -4.2342   -0.1179   -0.0043 N   0  0  0  0  0  0  0  0  0  0  0  0
    0.1386   -0.2942   -0.0041 N   0  0  0  0  0  0  0  0  0  0  0  0
   -2.8729    0.1143   -0.0038 C   0  0  0  0  0  0  0  0  0  0  0  0
   -2.1412   -1.0600   -0.0015 C   0  0  0  0  0  0  0  0  0  0  0  0
   -2.3077    1.4343   -0.0058 C   0  0  0  0  0  0  0  0  0  0  0  0
   -4.3038   -1.4201   -0.0025 C   0  0  0  0  0  0  0  0  0  0  0  0
   -3.1206   -3.4106    0.0016 C   0  0  0  0  0  0  0  0  0  0  0  0
   -2.0328    2.0733   -1.2147 C   0  0  0  0  0  0  0  0  0  0  0  0
   -2.0336    2.0773    1.2013 C   0  0  0  0  0  0  0  0  0  0  0  0
   -0.7284   -1.2717   -0.0012 C   0  0  0  0  0  0  0  0  0  0  0  0
   -1.2096    3.9987   -0.0095 C   0  0  0  0  0  0  0  0  0  0  0  0
   -4.3823   -3.8734    0.0017 C   0  0  0  0  0  0  0  0  0  0  0  0
   -1.4836    3.3556   -1.2166 C   0  0  0  0  0  0  0  0  0  0  0  0
   -1.4846    3.3596    1.1994 C   0  0  0  0  0  0  0  0  0  0  0  0
   -0.6232    5.3697   -0.0114 C   0  0  0  0  0  0  0  0  0  0  0  0
    3.7530   -0.2742   -0.0062 C   0  0  0  0  0  0  0  0  0  0  0  0
    2.3530    0.2654   -0.0067 C   0  0  0  0  0  0  0  0  0  0  0  0
    4.4284   -0.5320    1.1833 C   0  0  0  0  0  0  0  0  0  0  0  0
    4.3681   -0.5146   -1.2318 C   0  0  0  0  0  0  0  0  0  0  0  0
    5.7292   -1.0340    1.1471 C   0  0  0  0  0  0  0  0  0  0  0  0
    5.6691   -1.0165   -1.2679 C   0  0  0  0  0  0  0  0  0  0  0  0
    6.3497   -1.2762   -0.0785 C   0  0  0  0  0  0  0  0  0  0  0  0
   -2.2155   -3.9983    0.0031 H   0  0  0  0  0  0  0  0  0  0  0  0
   -2.2409    1.5858   -2.1642 H   0  0  0  0  0  0  0  0  0  0  0  0
   -2.2423    1.5928    2.1522 H   0  0  0  0  0  0  0  0  0  0  0  0
   -0.3679   -2.3162    0.0011 H   0  0  0  0  0  0  0  0  0  0  0  0
   -4.6640   -4.9169    0.0033 H   0  0  0  0  0  0  0  0  0  0  0  0
   -1.2754    3.8438   -2.1649 H   0  0  0  0  0  0  0  0  0  0  0  0
   -1.2770    3.8508    2.1463 H   0  0  0  0  0  0  0  0  0  0  0  0
    0.0099    5.5299    0.8680 H   0  0  0  0  0  0  0  0  0  0  0  0
    0.0075    5.5285   -0.8928 H   0  0  0  0  0  0  0  0  0  0  0  0
   -1.4206    6.1194   -0.0110 H   0  0  0  0  0  0  0  0  0  0  0  0
    2.1867    0.8742   -0.9055 H   0  0  0  0  0  0  0  0  0  0  0  0
    2.1644    0.9298    0.8443 H   0  0  0  0  0  0  0  0  0  0  0  0
    6.2733   -1.2420    2.0650 H   0  0  0  0  0  0  0  0  0  0  0  0
    6.1517   -1.2053   -2.2223 H   0  0  0  0  0  0  0  0  0  0  0  0
    7.3625   -1.6671   -0.1068 H   0  0  0  0  0  0  0  0  0  0  0  0
  1 23  1  0  0  0  0
  2 11  1  0  0  0  0
  2 17  1  0  0  0  0
  3 24  1  0  0  0  0
  4  7  1  0  0  0  0
  4 22  1  0  0  0  0
  5  9  1  0  0  0  0
  5 11  1  0  0  0  0
  5 12  1  0  0  0  0
  6  8  1  0  0  0  0
  6 11  2  0  0  0  0
  7 15  2  0  0  0  0
  8  9  2  0  0  0  0
  8 10  1  0  0  0  0
  9 15  1  0  0  0  0
 10 13  2  0  0  0  0
 10 14  1  0  0  0  0
 12 17  2  0  0  0  0
 12 28  1  0  0  0  0
 13 18  1  0  0  0  0
 13 29  1  0  0  0  0
 14 19  2  0  0  0  0
 14 30  1  0  0  0  0
 15 31  1  0  0  0  0
 16 18  2  0  0  0  0
 16 19  1  0  0  0  0
 16 20  1  0  0  0  0
 17 32  1  0  0  0  0
 18 33  1  0  0  0  0
 19 34  1  0  0  0  0
 20 35  1  0  0  0  0
 20 36  1  0  0  0  0
 20 37  1  0  0  0  0
 21 22  1  0  0  0  0
 21 23  1  0  0  0  0
 21 24  2  0  0  0  0
 22 38  1  0  0  0  0
 22 39  1  0  0  0  0
 23 25  2  0  0  0  0
 24 26  1  0  0  0  0
 25 27  1  0  0  0  0
 25 40  1  0  0  0  0
 26 27  2  0  0  0  0
 26 41  1  0  0  0  0
 27 42  1  0  0  0  0
M  END
> <PUBCHEM_COMPOUND_CID>
5929121

> <PUBCHEM_CONFORMER_RMSD>
0.8

> <PUBCHEM_CONFORMER_DIVERSEORDER>
1
58
21
69
6
3
47
17
18
75
24
70
61
25
34
10
41
66
64
46
43
13
4
33
5
36
54
44
68
49
16
2
32
31
14
12
20
29
39
57
8
19
51
67
62
26
59
71
38
23
27
15
22
40
48
56
53
11
45
50
63
73
72
55
35
7
65
52
60
28
74
9
30
37
42

> <PUBCHEM_MMFF94_PARTIAL_CHARGES>
37
1 -0.18
10 0.05
11 0.24
12 -0.18
13 -0.15
14 -0.15
15 0.47
16 -0.14
17 -0.05
18 -0.15
19 -0.15
2 -0.16
20 0.14
21 -0.14
22 0.42
23 0.18
24 0.19
25 -0.15
26 -0.15
27 -0.15
28 0.15
29 0.15
3 -0.19
30 0.15
31 0.06
32 0.15
33 0.15
34 0.15
4 -0.22
40 0.15
41 0.15
42 0.15
5 0.33
6 -0.57
7 -0.51
8 0.17
9 -0.24

> <PUBCHEM_EFFECTIVE_ROTOR_COUNT>
5

> <PUBCHEM_PHARMACOPHORE_FEATURES>
6
1 7 acceptor
3 5 6 11 cation
5 2 5 11 12 17 rings
5 5 6 8 9 11 rings
6 10 13 14 16 18 19 rings
6 21 23 24 25 26 27 rings

> <PUBCHEM_HEAVY_ATOM_COUNT>
27

> <PUBCHEM_ATOM_DEF_STEREO_COUNT>
0

> <PUBCHEM_ATOM_UDEF_STEREO_COUNT>
0

> <PUBCHEM_BOND_DEF_STEREO_COUNT>
1

> <PUBCHEM_BOND_UDEF_STEREO_COUNT>
0

> <PUBCHEM_ISOTOPIC_ATOM_COUNT>
0

> <PUBCHEM_COMPONENT_COUNT>
1

> <PUBCHEM_CACTVS_TAUTO_COUNT>
1

> <PUBCHEM_CONFORMER_ID>
005A78A100000001

> <PUBCHEM_MMFF94_ENERGY>
66.0612

> <PUBCHEM_FEATURE_SELFOVERLAP>
30.701

> <PUBCHEM_SHAPE_FINGERPRINT>
10411042 1 18338517564172741231
10622 236 17532351115944677298
10670039 82 18336549322595365366
10937287 8 17474387976452846965
11045515 52 18261110824611854845
11056379 131 18338239249948731414
11059845 2 17543322996970897560
11545043 162 18201434736836352834
11552529 35 18262795160403429516
11796584 16 18053385401968175406
12107183 9 17468468223698261666
12166972 35 17749672999251665695
12342043 65 17775298148940950070
12788726 201 18187359896519847627
13540713 4 17683513306831181655
13540713 5 17768541839526113355
13583140 156 17845357883137983198
13782708 43 17775286067008211366
14068700 675 18260546753302483548
14347332 77 18408602539687273594
14910302 57 18129114333048060550
15419008 47 18060420231421502208
15961568 22 18267297819765908120
16067689 68 17683212822318612538
17686467 74 18337951311879872208
17844677 252 18411140221667412162
19315092 285 16953617759264365440
20775438 99 17112398473723591275
21033648 29 17274242969216551866
21033650 10 18118993320668083622
21065201 7 18271242712824834514
2132832 1 18040997371222685332
2297311 6 18412832394946659471
23366157 5 17611741606778887925
23557571 272 18271533021968803735
23559900 14 18340199803571590337
3886686 26 17616506494531160194
4409770 3 18189322499559498725
469060 322 18339375092705053297
508706 21 18200022920534875600
6700243 42 17913524344047699044
7399639 24 18059850697220288838
9849439 229 17546441177040184456
9981440 41 17759238492889910865

> <PUBCHEM_SHAPE_MULTIPOLES>
533.28
13.25
5.45
1.5
16.04
6.93
0.31
-14.03
-0.24
-8.67
-0.08
2.43
0.29
0.16

> <PUBCHEM_SHAPE_SELFOVERLAP>
1153.597

> <PUBCHEM_SHAPE_VOLUME>
299

> <PUBCHEM_COORDINATE_TYPE>
2
5
10

