5930083
  -OEChem-06302411133D

 39 42  0     0  0  0  0  0  0999 V2000
    3.8537    1.7441    1.1466 Cl  0  0  0  0  0  0  0  0  0  0  0  0
    1.7165   -3.1568    0.0764 Cl  0  0  0  0  0  0  0  0  0  0  0  0
   -1.3178    3.8786   -1.8988 S   0  0  0  0  0  0  0  0  0  0  0  0
    0.7420    0.0409    1.2740 O   0  0  0  0  0  0  0  0  0  0  0  0
   -1.2122    2.3670    0.1703 N   0  0  0  0  0  0  0  0  0  0  0  0
   -2.1610    1.2236   -1.4980 N   0  0  0  0  0  0  0  0  0  0  0  0
   -0.0960    0.1624    2.3911 N   0  0  0  0  0  0  0  0  0  0  0  0
   -1.4922    1.1432    0.6962 C   0  0  0  0  0  0  0  0  0  0  0  0
   -2.0771    0.4562   -0.3529 C   0  0  0  0  0  0  0  0  0  0  0  0
   -1.6292    2.3547   -1.1258 C   0  0  0  0  0  0  0  0  0  0  0  0
   -2.5509   -0.8974   -0.2857 C   0  0  0  0  0  0  0  0  0  0  0  0
   -0.6451    3.5428    0.6011 C   0  0  0  0  0  0  0  0  0  0  0  0
   -1.2179    0.7301    2.0360 C   0  0  0  0  0  0  0  0  0  0  0  0
   -0.6199    4.4634   -0.3776 C   0  0  0  0  0  0  0  0  0  0  0  0
   -3.8683   -1.1573    0.0926 C   0  0  0  0  0  0  0  0  0  0  0  0
   -1.6941   -1.9527   -0.5987 C   0  0  0  0  0  0  0  0  0  0  0  0
    2.8632   -0.7188    0.5118 C   0  0  0  0  0  0  0  0  0  0  0  0
   -4.3286   -2.4724    0.1582 C   0  0  0  0  0  0  0  0  0  0  0  0
   -2.1546   -3.2678   -0.5332 C   0  0  0  0  0  0  0  0  0  0  0  0
    1.9489   -0.5780    1.6932 C   0  0  0  0  0  0  0  0  0  0  0  0
   -3.4718   -3.5276   -0.1548 C   0  0  0  0  0  0  0  0  0  0  0  0
    3.7610    0.3015    0.2017 C   0  0  0  0  0  0  0  0  0  0  0  0
    2.8134   -1.8696   -0.2733 C   0  0  0  0  0  0  0  0  0  0  0  0
    4.6114    0.1705   -0.8962 C   0  0  0  0  0  0  0  0  0  0  0  0
    3.6637   -2.0003   -1.3713 C   0  0  0  0  0  0  0  0  0  0  0  0
    4.5627   -0.9803   -1.6827 C   0  0  0  0  0  0  0  0  0  0  0  0
   -0.2809    3.6567    1.6107 H   0  0  0  0  0  0  0  0  0  0  0  0
   -1.9897    0.8993    2.8038 H   0  0  0  0  0  0  0  0  0  0  0  0
   -0.2228    5.4641   -0.2826 H   0  0  0  0  0  0  0  0  0  0  0  0
   -4.5490   -0.3459    0.3394 H   0  0  0  0  0  0  0  0  0  0  0  0
   -0.6728   -1.7591   -0.9128 H   0  0  0  0  0  0  0  0  0  0  0  0
    1.7288   -1.5466    2.1570 H   0  0  0  0  0  0  0  0  0  0  0  0
    2.4083    0.0081    2.4976 H   0  0  0  0  0  0  0  0  0  0  0  0
   -5.3542   -2.6749    0.4524 H   0  0  0  0  0  0  0  0  0  0  0  0
   -1.4896   -4.0896   -0.7820 H   0  0  0  0  0  0  0  0  0  0  0  0
   -3.8306   -4.5514   -0.1052 H   0  0  0  0  0  0  0  0  0  0  0  0
    5.3175    0.9562   -1.1529 H   0  0  0  0  0  0  0  0  0  0  0  0
    3.6384   -2.8905   -1.9946 H   0  0  0  0  0  0  0  0  0  0  0  0
    5.2246   -1.0821   -2.5377 H   0  0  0  0  0  0  0  0  0  0  0  0
  1 22  1  0  0  0  0
  2 23  1  0  0  0  0
  3 10  1  0  0  0  0
  3 14  1  0  0  0  0
  4  7  1  0  0  0  0
  4 20  1  0  0  0  0
  5  8  1  0  0  0  0
  5 10  1  0  0  0  0
  5 12  1  0  0  0  0
  6  9  1  0  0  0  0
  6 10  2  0  0  0  0
  7 13  2  0  0  0  0
  8  9  2  0  0  0  0
  8 13  1  0  0  0  0
  9 11  1  0  0  0  0
 11 15  2  0  0  0  0
 11 16  1  0  0  0  0
 12 14  2  0  0  0  0
 12 27  1  0  0  0  0
 13 28  1  0  0  0  0
 14 29  1  0  0  0  0
 15 18  1  0  0  0  0
 15 30  1  0  0  0  0
 16 19  2  0  0  0  0
 16 31  1  0  0  0  0
 17 20  1  0  0  0  0
 17 22  2  0  0  0  0
 17 23  1  0  0  0  0
 18 21  2  0  0  0  0
 18 34  1  0  0  0  0
 19 21  1  0  0  0  0
 19 35  1  0  0  0  0
 20 32  1  0  0  0  0
 20 33  1  0  0  0  0
 21 36  1  0  0  0  0
 22 24  1  0  0  0  0
 23 25  2  0  0  0  0
 24 26  2  0  0  0  0
 24 37  1  0  0  0  0
 25 26  1  0  0  0  0
 25 38  1  0  0  0  0
 26 39  1  0  0  0  0
M  END
> <PUBCHEM_COMPOUND_CID>
5930083

> <PUBCHEM_CONFORMER_RMSD>
0.8

> <PUBCHEM_CONFORMER_DIVERSEORDER>
2
15
9
5
16
22
11
6
7
10
1
13
14
8
3
21
4
17
20
19
18
12

> <PUBCHEM_MMFF94_PARTIAL_CHARGES>
37
1 -0.18
10 0.24
11 0.05
12 -0.18
13 0.47
14 -0.05
15 -0.15
16 -0.15
17 -0.14
18 -0.15
19 -0.15
2 -0.18
20 0.42
21 -0.15
22 0.18
23 0.18
24 -0.15
25 -0.15
26 -0.15
27 0.15
28 0.06
29 0.15
3 -0.16
30 0.15
31 0.15
34 0.15
35 0.15
36 0.15
37 0.15
38 0.15
39 0.15
4 -0.22
5 0.33
6 -0.57
7 -0.51
8 -0.24
9 0.17

> <PUBCHEM_EFFECTIVE_ROTOR_COUNT>
5

> <PUBCHEM_PHARMACOPHORE_FEATURES>
6
1 7 acceptor
3 5 6 10 cation
5 3 5 10 12 14 rings
5 5 6 8 9 10 rings
6 11 15 16 18 19 21 rings
6 17 22 23 24 25 26 rings

> <PUBCHEM_HEAVY_ATOM_COUNT>
26

> <PUBCHEM_ATOM_DEF_STEREO_COUNT>
0

> <PUBCHEM_ATOM_UDEF_STEREO_COUNT>
0

> <PUBCHEM_BOND_DEF_STEREO_COUNT>
1

> <PUBCHEM_BOND_UDEF_STEREO_COUNT>
0

> <PUBCHEM_ISOTOPIC_ATOM_COUNT>
0

> <PUBCHEM_COMPONENT_COUNT>
1

> <PUBCHEM_CACTVS_TAUTO_COUNT>
1

> <PUBCHEM_CONFORMER_ID>
005A7C6300000002

> <PUBCHEM_MMFF94_ENERGY>
76.8307

> <PUBCHEM_FEATURE_SELFOVERLAP>
30.701

> <PUBCHEM_SHAPE_FINGERPRINT>
10369192 42 17271429516720025360
10498660 4 18408879654971511702
10764073 3 16913442549341018523
11045515 52 18261678168026617693
11477941 20 18044406948601980196
11488393 25 17107921249167859747
11513181 2 16618429698375027540
11582403 64 16231677062924736261
12156800 1 14497436351678023964
12160290 23 18055610872977415995
12173636 292 18050558543669792605
12539773 59 17677916550924412413
12553582 1 18337661035861401363
12788726 201 18186799137068227811
1361 2 17761495085828874388
14910302 57 18271246023906918526
14955137 171 18191891070338379291
151778 21 17472710121877081308
15210252 30 18192996151985083530
15475509 8 18413100655321278975
15664445 248 18264200498992378033
17349148 13 16950269716281907682
17492 54 17610900475656279004
1813 80 18264208183158492435
19930381 70 18194120939532358932
20028762 73 15453697346825992187
20600515 1 18129401417568343335
20771845 140 16901304361724621147
20775438 99 17908659000462810093
21330990 113 18197224638056997281
22393880 68 18268436729217997518
22907989 373 18264765463612353247
23557571 272 18410285934933420312
26353 1 18262796388521463485
340366 18 17468471517521471834
4280585 95 18047450490511935970
4394409 98 16824206017948679318
46194498 28 17830442148924460927
463206 1 18118415178581717622
469060 322 18336838592336533402
5081480 168 17971732610240206951
58260988 587 16756089069237056793
6287921 2 17622438763420747795
7399639 24 18200301243269042872

> <PUBCHEM_SHAPE_MULTIPOLES>
521.84
8
5.43
1.75
5.99
3.53
0.37
-5.8
-1.94
-4.29
-1.85
0.67
0.76
1.24

> <PUBCHEM_SHAPE_SELFOVERLAP>
1120.899

> <PUBCHEM_SHAPE_VOLUME>
292.8

> <PUBCHEM_COORDINATE_TYPE>
2
5
10

