5930771
  -OEChem-06302411133D

 43 46  0     0  0  0  0  0  0999 V2000
   -7.0010    0.9278   -2.3749 Cl  0  0  0  0  0  0  0  0  0  0  0  0
   -8.5137    0.9253    0.4850 Cl  0  0  0  0  0  0  0  0  0  0  0  0
    2.2844    0.4362    0.0173 S   0  0  0  0  0  0  0  0  0  0  0  0
    3.7545   -4.8449   -0.1046 S   0  0  0  0  0  0  0  0  0  0  0  0
   -2.0782   -0.5477    0.1636 O   0  0  0  0  0  0  0  0  0  0  0  0
    1.6457   -3.3884   -0.0092 N   0  0  0  0  0  0  0  0  0  0  0  0
    3.4335   -2.0496   -0.0566 N   0  0  0  0  0  0  0  0  0  0  0  0
   -0.6772   -0.5530    0.1124 N   0  0  0  0  0  0  0  0  0  0  0  0
    1.1409   -2.1248    0.0254 C   0  0  0  0  0  0  0  0  0  0  0  0
    2.2636   -1.3320   -0.0051 C   0  0  0  0  0  0  0  0  0  0  0  0
    3.0022   -3.2803   -0.0568 C   0  0  0  0  0  0  0  0  0  0  0  0
    1.1516   -4.6711   -0.0080 C   0  0  0  0  0  0  0  0  0  0  0  0
    4.0796    0.7217   -0.0441 C   0  0  0  0  0  0  0  0  0  0  0  0
    4.4280    2.1721   -0.0378 C   0  0  0  0  0  0  0  0  0  0  0  0
   -0.2458   -1.7859    0.0800 C   0  0  0  0  0  0  0  0  0  0  0  0
    2.1413   -5.5789   -0.0558 C   0  0  0  0  0  0  0  0  0  0  0  0
   -4.0123    0.8338    0.2528 C   0  0  0  0  0  0  0  0  0  0  0  0
    4.6348    2.8344    1.1722 C   0  0  0  0  0  0  0  0  0  0  0  0
    4.5468    2.8660   -1.2419 C   0  0  0  0  0  0  0  0  0  0  0  0
   -2.5131    0.8032    0.1977 C   0  0  0  0  0  0  0  0  0  0  0  0
    4.9603    4.1908    1.1782 C   0  0  0  0  0  0  0  0  0  0  0  0
    4.8723    4.2224   -1.2360 C   0  0  0  0  0  0  0  0  0  0  0  0
   -4.7444    0.8641   -0.9288 C   0  0  0  0  0  0  0  0  0  0  0  0
   -4.6557    0.8315    1.4853 C   0  0  0  0  0  0  0  0  0  0  0  0
    5.0791    4.8848   -0.0259 C   0  0  0  0  0  0  0  0  0  0  0  0
   -6.1379    0.8924   -0.8773 C   0  0  0  0  0  0  0  0  0  0  0  0
   -6.0492    0.8598    1.5370 C   0  0  0  0  0  0  0  0  0  0  0  0
   -6.7904    0.8903    0.3557 C   0  0  0  0  0  0  0  0  0  0  0  0
    0.0916   -4.8705    0.0277 H   0  0  0  0  0  0  0  0  0  0  0  0
    4.4911    0.2503   -0.9449 H   0  0  0  0  0  0  0  0  0  0  0  0
    4.5549    0.2274    0.8119 H   0  0  0  0  0  0  0  0  0  0  0  0
   -0.9750   -2.6160    0.0954 H   0  0  0  0  0  0  0  0  0  0  0  0
    2.0046   -6.6510   -0.0649 H   0  0  0  0  0  0  0  0  0  0  0  0
    4.5443    2.3060    2.1177 H   0  0  0  0  0  0  0  0  0  0  0  0
    4.3872    2.3624   -2.1917 H   0  0  0  0  0  0  0  0  0  0  0  0
   -2.1539    1.3334   -0.6935 H   0  0  0  0  0  0  0  0  0  0  0  0
   -2.0899    1.3092    1.0748 H   0  0  0  0  0  0  0  0  0  0  0  0
   -4.2295    0.8632   -1.8868 H   0  0  0  0  0  0  0  0  0  0  0  0
   -4.0879    0.8058    2.4114 H   0  0  0  0  0  0  0  0  0  0  0  0
    5.1210    4.7067    2.1204 H   0  0  0  0  0  0  0  0  0  0  0  0
    4.9644    4.7629   -2.1735 H   0  0  0  0  0  0  0  0  0  0  0  0
    5.3324    5.9409   -0.0213 H   0  0  0  0  0  0  0  0  0  0  0  0
   -6.5412    0.8573    2.5065 H   0  0  0  0  0  0  0  0  0  0  0  0
  1 26  1  0  0  0  0
  2 28  1  0  0  0  0
  3 10  1  0  0  0  0
  3 13  1  0  0  0  0
  4 11  1  0  0  0  0
  4 16  1  0  0  0  0
  5  8  1  0  0  0  0
  5 20  1  0  0  0  0
  6  9  1  0  0  0  0
  6 11  1  0  0  0  0
  6 12  1  0  0  0  0
  7 10  1  0  0  0  0
  7 11  2  0  0  0  0
  8 15  2  0  0  0  0
  9 10  2  0  0  0  0
  9 15  1  0  0  0  0
 12 16  2  0  0  0  0
 12 29  1  0  0  0  0
 13 14  1  0  0  0  0
 13 30  1  0  0  0  0
 13 31  1  0  0  0  0
 14 18  2  0  0  0  0
 14 19  1  0  0  0  0
 15 32  1  0  0  0  0
 16 33  1  0  0  0  0
 17 20  1  0  0  0  0
 17 23  2  0  0  0  0
 17 24  1  0  0  0  0
 18 21  1  0  0  0  0
 18 34  1  0  0  0  0
 19 22  2  0  0  0  0
 19 35  1  0  0  0  0
 20 36  1  0  0  0  0
 20 37  1  0  0  0  0
 21 25  2  0  0  0  0
 21 40  1  0  0  0  0
 22 25  1  0  0  0  0
 22 41  1  0  0  0  0
 23 26  1  0  0  0  0
 23 38  1  0  0  0  0
 24 27  2  0  0  0  0
 24 39  1  0  0  0  0
 25 42  1  0  0  0  0
 26 28  2  0  0  0  0
 27 28  1  0  0  0  0
 27 43  1  0  0  0  0
M  END
> <PUBCHEM_COMPOUND_CID>
5930771

> <PUBCHEM_CONFORMER_RMSD>
1

> <PUBCHEM_CONFORMER_DIVERSEORDER>
1
286
100
128
45
306
295
159
255
32
105
246
245
307
16
93
315
23
2
226
288
87
175
14
180
298
164
317
158
312
258
75
43
88
3
275
144
278
249
204
151
9
259
238
70
279
6
282
147
8
274
199
141
7
119
86
346
73
120
10
321
310
287
192
338
324
15
209
332
201
264
37
260
277
239
232
215
130
256
265
42
49
345
156
101
272
251
83
143
242
213
257
266
223
237
76
177
89
331
111
281
17
110
340
211
313
161
293
230
294
50
150
162
247
328
325
308
250
203
252
285
135
311
47
30
196
218
92
253
58
326
195
165
29
170
303
244
329
167
206
169
228
103
309
176
221
314
61
319
233
166
77
280
194
220
214
184
172
323
5
40
183
11
290
284
4
168
19
316
217
95
262
200
181
12
91
174
289
109
102
236
248
53
157
123
267
114
336
227
126
113
139
304
28
124
322
72
55
299
133
254
97
62
341
187
64
152
56
44
241
207
171
343
191
193
271
36
182
33
198
131
208
320
222
189
263
178
125
80
27
327
127
107
296
163
39
276
98
333
60
26
330
82
302
13
219
342
305
190
81
31
106
132
35
22
202
21
268
96
129
134
65
225
136
18
84
270
318
334
235
205
48
41
115
90
66
231
54
337
229
20
155
339
292
269
186
240
57
68
38
25
273
197
301
224
335
243
138
121
51
59
117
34
212
71
261
108
85
140
283
137
153
146
234
297
74
145
116
79
160
99
216
291
300
24
52
185
148
344
122
46
149
188
112
67
69
179
142
210
173
118
94
63
78
154
104

> <PUBCHEM_MMFF94_PARTIAL_CHARGES>
39
1 -0.18
10 0.28
11 0.24
12 -0.18
13 0.37
14 -0.14
15 0.47
16 -0.05
17 -0.14
18 -0.15
19 -0.15
2 -0.18
20 0.42
21 -0.15
22 -0.15
23 -0.15
24 -0.15
25 -0.15
26 0.18
27 -0.15
28 0.18
29 0.15
3 -0.28
32 0.06
33 0.15
34 0.15
35 0.15
38 0.15
39 0.15
4 -0.16
40 0.15
41 0.15
42 0.15
43 0.15
5 -0.22
6 0.33
7 -0.57
8 -0.51
9 -0.24

> <PUBCHEM_EFFECTIVE_ROTOR_COUNT>
7

> <PUBCHEM_PHARMACOPHORE_FEATURES>
6
1 8 acceptor
3 6 7 11 cation
5 4 6 11 12 16 rings
5 6 7 9 10 11 rings
6 14 18 19 21 22 25 rings
6 17 23 24 26 27 28 rings

> <PUBCHEM_HEAVY_ATOM_COUNT>
28

> <PUBCHEM_ATOM_DEF_STEREO_COUNT>
0

> <PUBCHEM_ATOM_UDEF_STEREO_COUNT>
0

> <PUBCHEM_BOND_DEF_STEREO_COUNT>
1

> <PUBCHEM_BOND_UDEF_STEREO_COUNT>
0

> <PUBCHEM_ISOTOPIC_ATOM_COUNT>
0

> <PUBCHEM_COMPONENT_COUNT>
1

> <PUBCHEM_CACTVS_TAUTO_COUNT>
1

> <PUBCHEM_CONFORMER_ID>
005A7F1300000001

> <PUBCHEM_MMFF94_ENERGY>
60.781

> <PUBCHEM_FEATURE_SELFOVERLAP>
30.704

> <PUBCHEM_SHAPE_FINGERPRINT>
10411042 1 17906455420753735042
10673678 19 18411143570829708936
10937287 8 18267304408076317794
11059845 2 17980453966848078048
11445158 3 18126837210175737775
11505856 67 17251476769193700652
12166972 35 18056757620149702699
13955234 65 18337956688430145850
14251764 75 18340770445864368165
14400156 413 18338507544373567413
14565420 104 18410294739284009297
14849402 71 18339368457344661738
15131766 46 18342727555910581605
15198563 99 17332248009909135694
15419008 42 17823115870930925941
15419008 91 17821722807611313661
15890870 6 18338802333416371816
16096371 109 18409168805165297000
16988056 13 18120646938732179588
17844677 252 18123474882696717811
19319366 153 18271802449673297868
19427546 62 18409732884806133458
1979834 28 18113624503309238492
21049683 271 18118134580643953630
22311459 1 18339080376819415706
23522609 53 17775017752454555881
23559900 14 17532388469591585411
23845131 108 18337111284226475362
249999 5 18409732841745287954
2748736 6 18339355387327234897
3627633 1 17329431641071057694
4403749 210 17975977879573338593
5219985 13 18265898141041164940
5912855 24 18272643598124184479
6695519 79 18051724262313525899
6697151 62 17829025642708548567
77188 2 17978231552651952758
9849439 229 18267302217516558808
9962374 69 18339631236371567327

> <PUBCHEM_SHAPE_MULTIPOLES>
566.85
19.89
7.92
1.29
43.42
6.57
-0.32
-21.07
-1.1
-22.79
-0.31
1.88
-1.13
0.14

> <PUBCHEM_SHAPE_SELFOVERLAP>
1186.943

> <PUBCHEM_SHAPE_VOLUME>
325.1

> <PUBCHEM_COORDINATE_TYPE>
2
5
10

