6062654
  -OEChem-06302411133D

 39 42  0     0  0  0  0  0  0999 V2000
    3.5715   -1.8471    1.4731 Cl  0  0  0  0  0  0  0  0  0  0  0  0
    5.7002    1.3057   -2.3346 Cl  0  0  0  0  0  0  0  0  0  0  0  0
   -1.3753   -3.6662   -2.1131 S   0  0  0  0  0  0  0  0  0  0  0  0
    0.4611   -0.0676    1.4470 O   0  0  0  0  0  0  0  0  0  0  0  0
   -1.4342   -2.2701    0.0373 N   0  0  0  0  0  0  0  0  0  0  0  0
   -2.1910   -1.0134   -1.6475 N   0  0  0  0  0  0  0  0  0  0  0  0
   -0.4830   -0.2211    2.4717 N   0  0  0  0  0  0  0  0  0  0  0  0
   -1.7352   -1.0684    0.6014 C   0  0  0  0  0  0  0  0  0  0  0  0
   -2.2000   -0.3110   -0.4588 C   0  0  0  0  0  0  0  0  0  0  0  0
   -1.7237   -2.1770   -1.2899 C   0  0  0  0  0  0  0  0  0  0  0  0
   -2.6461    1.0509   -0.3620 C   0  0  0  0  0  0  0  0  0  0  0  0
   -0.9391   -3.4828    0.4540 C   0  0  0  0  0  0  0  0  0  0  0  0
   -1.5800   -0.7344    1.9818 C   0  0  0  0  0  0  0  0  0  0  0  0
   -0.8412   -4.3506   -0.5674 C   0  0  0  0  0  0  0  0  0  0  0  0
   -1.7383    2.0959   -0.5337 C   0  0  0  0  0  0  0  0  0  0  0  0
   -3.9869    1.3284   -0.0965 C   0  0  0  0  0  0  0  0  0  0  0  0
    2.6646    0.6644    0.9312 C   0  0  0  0  0  0  0  0  0  0  0  0
   -2.1714    3.4186   -0.4398 C   0  0  0  0  0  0  0  0  0  0  0  0
   -4.4202    2.6510   -0.0027 C   0  0  0  0  0  0  0  0  0  0  0  0
    1.6378    0.4907    2.0115 C   0  0  0  0  0  0  0  0  0  0  0  0
   -3.5123    3.6961   -0.1744 C   0  0  0  0  0  0  0  0  0  0  0  0
    3.5748   -0.3432    0.6264 C   0  0  0  0  0  0  0  0  0  0  0  0
    2.6860    1.8689    0.2338 C   0  0  0  0  0  0  0  0  0  0  0  0
    4.5149   -0.1450   -0.3848 C   0  0  0  0  0  0  0  0  0  0  0  0
    3.6261    2.0671   -0.7773 C   0  0  0  0  0  0  0  0  0  0  0  0
    4.5407    1.0602   -1.0866 C   0  0  0  0  0  0  0  0  0  0  0  0
   -0.6769   -3.6605    1.4859 H   0  0  0  0  0  0  0  0  0  0  0  0
   -2.4263   -0.9185    2.6627 H   0  0  0  0  0  0  0  0  0  0  0  0
   -0.4788   -5.3659   -0.4907 H   0  0  0  0  0  0  0  0  0  0  0  0
   -0.6897    1.8966   -0.7418 H   0  0  0  0  0  0  0  0  0  0  0  0
   -4.7073    0.5252    0.0396 H   0  0  0  0  0  0  0  0  0  0  0  0
    1.3957    1.4674    2.4519 H   0  0  0  0  0  0  0  0  0  0  0  0
    2.0036   -0.1318    2.8358 H   0  0  0  0  0  0  0  0  0  0  0  0
   -1.4644    4.2322   -0.5733 H   0  0  0  0  0  0  0  0  0  0  0  0
   -5.4642    2.8673    0.2040 H   0  0  0  0  0  0  0  0  0  0  0  0
   -3.8496    4.7259   -0.1013 H   0  0  0  0  0  0  0  0  0  0  0  0
    1.9772    2.6606    0.4614 H   0  0  0  0  0  0  0  0  0  0  0  0
    5.2288   -0.9293   -0.6276 H   0  0  0  0  0  0  0  0  0  0  0  0
    3.6337    3.0108   -1.3167 H   0  0  0  0  0  0  0  0  0  0  0  0
  1 22  1  0  0  0  0
  2 26  1  0  0  0  0
  3 10  1  0  0  0  0
  3 14  1  0  0  0  0
  4  7  1  0  0  0  0
  4 20  1  0  0  0  0
  5  8  1  0  0  0  0
  5 10  1  0  0  0  0
  5 12  1  0  0  0  0
  6  9  1  0  0  0  0
  6 10  2  0  0  0  0
  7 13  2  0  0  0  0
  8  9  2  0  0  0  0
  8 13  1  0  0  0  0
  9 11  1  0  0  0  0
 11 15  2  0  0  0  0
 11 16  1  0  0  0  0
 12 14  2  0  0  0  0
 12 27  1  0  0  0  0
 13 28  1  0  0  0  0
 14 29  1  0  0  0  0
 15 18  1  0  0  0  0
 15 30  1  0  0  0  0
 16 19  2  0  0  0  0
 16 31  1  0  0  0  0
 17 20  1  0  0  0  0
 17 22  2  0  0  0  0
 17 23  1  0  0  0  0
 18 21  2  0  0  0  0
 18 34  1  0  0  0  0
 19 21  1  0  0  0  0
 19 35  1  0  0  0  0
 20 32  1  0  0  0  0
 20 33  1  0  0  0  0
 21 36  1  0  0  0  0
 22 24  1  0  0  0  0
 23 25  2  0  0  0  0
 23 37  1  0  0  0  0
 24 26  2  0  0  0  0
 24 38  1  0  0  0  0
 25 26  1  0  0  0  0
 25 39  1  0  0  0  0
M  END
> <PUBCHEM_COMPOUND_CID>
6062654

> <PUBCHEM_CONFORMER_RMSD>
0.8

> <PUBCHEM_CONFORMER_DIVERSEORDER>
1
21
20
49
22
51
24
52
5
25
41
23
42
35
53
16
9
54
18
36
10
15
7
3
26
46
4
8
30
33
43
13
45
2
6
50
14
17
34
19
44
29
37
39
27
11
48
40
55
28
12
47
38
56
31
32

> <PUBCHEM_MMFF94_PARTIAL_CHARGES>
37
1 -0.18
10 0.24
11 0.05
12 -0.18
13 0.47
14 -0.05
15 -0.15
16 -0.15
17 -0.14
18 -0.15
19 -0.15
2 -0.18
20 0.42
21 -0.15
22 0.18
23 -0.15
24 -0.15
25 -0.15
26 0.18
27 0.15
28 0.06
29 0.15
3 -0.16
30 0.15
31 0.15
34 0.15
35 0.15
36 0.15
37 0.15
38 0.15
39 0.15
4 -0.22
5 0.33
6 -0.57
7 -0.51
8 -0.24
9 0.17

> <PUBCHEM_EFFECTIVE_ROTOR_COUNT>
5

> <PUBCHEM_PHARMACOPHORE_FEATURES>
6
1 7 acceptor
3 5 6 10 cation
5 3 5 10 12 14 rings
5 5 6 8 9 10 rings
6 11 15 16 18 19 21 rings
6 17 22 23 24 25 26 rings

> <PUBCHEM_HEAVY_ATOM_COUNT>
26

> <PUBCHEM_ATOM_DEF_STEREO_COUNT>
0

> <PUBCHEM_ATOM_UDEF_STEREO_COUNT>
0

> <PUBCHEM_BOND_DEF_STEREO_COUNT>
1

> <PUBCHEM_BOND_UDEF_STEREO_COUNT>
0

> <PUBCHEM_ISOTOPIC_ATOM_COUNT>
0

> <PUBCHEM_COMPONENT_COUNT>
1

> <PUBCHEM_CACTVS_TAUTO_COUNT>
1

> <PUBCHEM_CONFORMER_ID>
005C823E00000001

> <PUBCHEM_MMFF94_ENERGY>
73.9312

> <PUBCHEM_FEATURE_SELFOVERLAP>
30.701

> <PUBCHEM_SHAPE_FINGERPRINT>
10305334 12 15146370330256901855
11488393 25 17909277879975848475
11578080 2 17910424731012534809
11607047 403 18044400278602152107
12156800 1 14253674507814810222
12173636 292 18339063956789547839
12422481 6 16897042095766443962
12539773 59 17822858705009420893
12553582 1 17832695047627294787
12788726 201 18265604558467393703
13257819 37 18411705378928068743
133893 2 17481439174954992795
14251757 17 15553859158032687461
14251757 5 18341342166442019644
15163728 17 18195823876932715901
151778 21 18263924328458611348
15463212 79 18336533984786779002
15475509 35 11452744670284056413
15475509 8 17984130737694174391
15664445 248 17259598869766546467
16991981 162 18338523061293108621
17809404 112 16773501253428066806
1813 80 17550099711776259107
18785283 64 17904484004714732675
19319366 153 17676489410965580424
20693207 138 17631168770028754376
22393880 68 18340773753849074628
22907989 373 18265320892925584663
23366157 5 17760078524389556875
23419403 2 17401531098165100891
23728640 28 18410017666954823173
25265897 201 18051168935995464292
26353 1 17621021497348668519
2637199 183 18042969774507527712
312425 83 18339096968462378916
3298306 158 18127125269289586223
340366 18 18192424182890413090
3411729 13 17904204724799334001
3610482 184 17823439230702656380
3729539 64 17701271225838733167
4394409 98 17979655450449099438
463206 1 16967169497378790902
508706 21 18130514114703644102
531348 171 18336559278592905582
58260988 587 17980221698915875737
7288768 16 16732994136574563432

> <PUBCHEM_SHAPE_MULTIPOLES>
521.84
9.22
5.07
2.04
10.66
2.97
-0.23
-7.71
3.62
-5.48
2.08
1.34
0.84
-1.68

> <PUBCHEM_SHAPE_SELFOVERLAP>
1119.766

> <PUBCHEM_SHAPE_VOLUME>
293.1

> <PUBCHEM_COORDINATE_TYPE>
2
5
10

