6267892
  -OEChem-06302411133D

 41 44  0     0  0  0  0  0  0999 V2000
   -1.7937    5.5933   -0.0004 Cl  0  0  0  0  0  0  0  0  0  0  0  0
   -5.8776   -3.0992   -0.0015 S   0  0  0  0  0  0  0  0  0  0  0  0
    0.9061   -0.5389    0.0008 O   0  0  0  0  0  0  0  0  0  0  0  0
    7.8001   -0.9283   -1.0971 O   0  5  0  0  0  0  0  0  0  0  0  0
    7.7995   -0.9273    1.0981 O   0  0  0  0  0  0  0  0  0  0  0  0
   -3.4509   -2.2693    0.0007 N   0  0  0  0  0  0  0  0  0  0  0  0
   -4.8093   -0.4957   -0.0011 N   0  0  0  0  0  0  0  0  0  0  0  0
   -0.4453   -0.1664    0.0004 N   0  0  0  0  0  0  0  0  0  0  0  0
    7.2106   -0.7769    0.0004 N   0  3  0  0  0  0  0  0  0  0  0  0
   -2.6215   -1.1901    0.0012 C   0  0  0  0  0  0  0  0  0  0  0  0
   -3.4839   -0.1082    0.0002 C   0  0  0  0  0  0  0  0  0  0  0  0
   -4.7281   -1.7972   -0.0009 C   0  0  0  0  0  0  0  0  0  0  0  0
   -3.0746    1.2683   -0.0001 C   0  0  0  0  0  0  0  0  0  0  0  0
   -3.3233   -3.6380    0.0012 C   0  0  0  0  0  0  0  0  0  0  0  0
   -1.1936   -1.2374    0.0017 C   0  0  0  0  0  0  0  0  0  0  0  0
   -4.5232   -4.2432    0.0003 C   0  0  0  0  0  0  0  0  0  0  0  0
   -2.8750    1.9366   -1.2080 C   0  0  0  0  0  0  0  0  0  0  0  0
   -2.8784    1.9377    1.2078 C   0  0  0  0  0  0  0  0  0  0  0  0
    3.1427    0.2703   -0.0004 C   0  0  0  0  0  0  0  0  0  0  0  0
   -2.4790    3.2741   -1.2081 C   0  0  0  0  0  0  0  0  0  0  0  0
   -2.4825    3.2752    1.2078 C   0  0  0  0  0  0  0  0  0  0  0  0
    1.6898    0.6448   -0.0007 C   0  0  0  0  0  0  0  0  0  0  0  0
   -2.2827    3.9434   -0.0002 C   0  0  0  0  0  0  0  0  0  0  0  0
    3.8090    0.0970   -1.2083 C   0  0  0  0  0  0  0  0  0  0  0  0
    3.8096    0.0997    1.2075 C   0  0  0  0  0  0  0  0  0  0  0  0
    5.8353   -0.4244   -0.0003 C   0  0  0  0  0  0  0  0  0  0  0  0
    5.1596   -0.2514   -1.2083 C   0  0  0  0  0  0  0  0  0  0  0  0
    5.1603   -0.2487    1.2076 C   0  0  0  0  0  0  0  0  0  0  0  0
   -2.3564   -4.1174    0.0023 H   0  0  0  0  0  0  0  0  0  0  0  0
   -0.7151   -2.2334    0.0027 H   0  0  0  0  0  0  0  0  0  0  0  0
   -4.6826   -5.3122    0.0005 H   0  0  0  0  0  0  0  0  0  0  0  0
   -3.0239    1.4291   -2.1582 H   0  0  0  0  0  0  0  0  0  0  0  0
   -3.0301    1.4311    2.1581 H   0  0  0  0  0  0  0  0  0  0  0  0
    1.4522    1.2483   -0.8861 H   0  0  0  0  0  0  0  0  0  0  0  0
    1.4525    1.2503    0.8833 H   0  0  0  0  0  0  0  0  0  0  0  0
   -2.3268    3.7820   -2.1570 H   0  0  0  0  0  0  0  0  0  0  0  0
   -2.3331    3.7840    2.1566 H   0  0  0  0  0  0  0  0  0  0  0  0
    3.2915    0.2273   -2.1548 H   0  0  0  0  0  0  0  0  0  0  0  0
    3.2926    0.2321    2.1539 H   0  0  0  0  0  0  0  0  0  0  0  0
    5.6531   -0.3800   -2.1683 H   0  0  0  0  0  0  0  0  0  0  0  0
    5.6541   -0.3751    2.1677 H   0  0  0  0  0  0  0  0  0  0  0  0
  1 23  1  0  0  0  0
  2 12  1  0  0  0  0
  2 16  1  0  0  0  0
  3  8  1  0  0  0  0
  3 22  1  0  0  0  0
  4  9  1  0  0  0  0
  5  9  2  0  0  0  0
  6 10  1  0  0  0  0
  6 12  1  0  0  0  0
  6 14  1  0  0  0  0
  7 11  1  0  0  0  0
  7 12  2  0  0  0  0
  8 15  2  0  0  0  0
  9 26  1  0  0  0  0
 10 11  2  0  0  0  0
 10 15  1  0  0  0  0
 11 13  1  0  0  0  0
 13 17  2  0  0  0  0
 13 18  1  0  0  0  0
 14 16  2  0  0  0  0
 14 29  1  0  0  0  0
 15 30  1  0  0  0  0
 16 31  1  0  0  0  0
 17 20  1  0  0  0  0
 17 32  1  0  0  0  0
 18 21  2  0  0  0  0
 18 33  1  0  0  0  0
 19 22  1  0  0  0  0
 19 24  2  0  0  0  0
 19 25  1  0  0  0  0
 20 23  2  0  0  0  0
 20 36  1  0  0  0  0
 21 23  1  0  0  0  0
 21 37  1  0  0  0  0
 22 34  1  0  0  0  0
 22 35  1  0  0  0  0
 24 27  1  0  0  0  0
 24 38  1  0  0  0  0
 25 28  2  0  0  0  0
 25 39  1  0  0  0  0
 26 27  2  0  0  0  0
 26 28  1  0  0  0  0
 27 40  1  0  0  0  0
 28 41  1  0  0  0  0
M  CHG  2   4  -1   9   1
M  END
> <PUBCHEM_COMPOUND_CID>
6267892

> <PUBCHEM_CONFORMER_RMSD>
0.8

> <PUBCHEM_CONFORMER_DIVERSEORDER>
1
10
53
50
42
36
2
29
21
34
25
15
12
24
51
3
35
8
20
9
49
19
14
48
52
27
26
11
28
37
4
30
18
33
47
6
43
5
13
17
39
7
46
16
38
22
31
32
23
45
40
44
41

> <PUBCHEM_MMFF94_PARTIAL_CHARGES>
39
1 -0.18
10 -0.24
11 0.17
12 0.24
13 0.05
14 -0.18
15 0.47
16 -0.05
17 -0.15
18 -0.15
19 -0.14
2 -0.16
20 -0.15
21 -0.15
22 0.42
23 0.18
24 -0.15
25 -0.15
26 0.13
27 -0.15
28 -0.15
29 0.15
3 -0.22
30 0.06
31 0.15
32 0.15
33 0.15
36 0.15
37 0.15
38 0.15
39 0.15
4 -0.52
40 0.15
41 0.15
5 -0.52
6 0.33
7 -0.57
8 -0.51
9 0.91

> <PUBCHEM_EFFECTIVE_ROTOR_COUNT>
6

> <PUBCHEM_PHARMACOPHORE_FEATURES>
9
1 4 acceptor
1 4 anion
1 5 acceptor
1 8 acceptor
3 6 7 12 cation
5 2 6 12 14 16 rings
5 6 7 10 11 12 rings
6 13 17 18 20 21 23 rings
6 19 24 25 26 27 28 rings

> <PUBCHEM_HEAVY_ATOM_COUNT>
28

> <PUBCHEM_ATOM_DEF_STEREO_COUNT>
0

> <PUBCHEM_ATOM_UDEF_STEREO_COUNT>
0

> <PUBCHEM_BOND_DEF_STEREO_COUNT>
1

> <PUBCHEM_BOND_UDEF_STEREO_COUNT>
0

> <PUBCHEM_ISOTOPIC_ATOM_COUNT>
0

> <PUBCHEM_COMPONENT_COUNT>
1

> <PUBCHEM_CACTVS_TAUTO_COUNT>
1

> <PUBCHEM_CONFORMER_ID>
005FA3F400000001

> <PUBCHEM_MMFF94_ENERGY>
73.4265

> <PUBCHEM_FEATURE_SELFOVERLAP>
46.006

> <PUBCHEM_SHAPE_FINGERPRINT>
100830 39 18410854322726953240
10411042 1 18266458892330020135
10595046 47 18261114093461528398
10670039 82 18408884027627799714
10937287 8 17690559685267937929
11056379 131 18410013208615057437
11059845 2 17687718586113120864
11434127 23 18129092325883835164
11545043 162 18201716254635850218
12107183 9 17685202881823046314
12166972 35 17677613232176427391
12342043 65 17917717937188704794
12788726 201 18260257543506683835
13009979 54 18188500180071723621
13631057 29 18410008853397212010
13782708 43 17845935238111320806
14068700 675 18261392303508843773
14347332 77 18408886256436186478
14713325 29 18342178834560500827
14910302 57 18129117657431752087
15021287 119 17095532747521767652
15183329 4 17676492727360697454
15400415 2 17545882625507963352
15419008 42 17770500829553627894
15419008 47 18059853995570530544
15876981 60 18260837015661300853
15961568 22 18194678405039883696
16087824 20 18410010997999688509
16990350 14 16899621516224154704
16992828 155 17242731987708702012
17686467 74 18338231700092947288
17844677 252 18410858776618614768
21033648 29 17203032016164025170
21033650 10 18118147821805970238
21796203 349 17829364558862583467
22956985 138 17689712391346306519
2297311 6 18411703222612243443
23081809 10 17530967956851011866
23559900 14 17977940513073120371
249057 25 17894920633460647668
3418910 222 18337956822281650120
397830 11 18271794771041782984
4409770 3 18334565821078087469
469060 322 18339657697622159665
531348 171 18262518070530474730
6057620 51 18115875286043154142
6700243 42 17912962519217765564
9981440 41 17903636285809033121

> <PUBCHEM_SHAPE_MULTIPOLES>
544.41
17.38
5.73
1.11
40.01
5.97
0
-15.08
0
-13.03
0
0.95
0.47
0

> <PUBCHEM_SHAPE_SELFOVERLAP>
1178.124

> <PUBCHEM_SHAPE_VOLUME>
302.6

> <PUBCHEM_COORDINATE_TYPE>
2
5
10

