82367708
  -OEChem-06302411133D

 36 39  0     0  0  0  0  0  0999 V2000
   -5.7747    1.7808    1.4288 Cl  0  0  0  0  0  0  0  0  0  0  0  0
   -7.3360   -0.4879   -0.2692 Cl  0  0  0  0  0  0  0  0  0  0  0  0
    2.1433   -1.7574    0.6930 S   0  0  0  0  0  0  0  0  0  0  0  0
   -0.6796    2.9379   -0.0909 O   0  0  0  0  0  0  0  0  0  0  0  0
    0.6847    0.1470   -0.2140 N   0  0  0  0  0  0  0  0  0  0  0  0
   -0.6501   -1.5036    0.4816 N   0  0  0  0  0  0  0  0  0  0  0  0
   -0.5795    0.5899   -0.4560 C   0  0  0  0  0  0  0  0  0  0  0  0
   -1.3880   -0.4466   -0.0184 C   0  0  0  0  0  0  0  0  0  0  0  0
    0.5793   -1.0923    0.3392 C   0  0  0  0  0  0  0  0  0  0  0  0
    1.9654    0.6194   -0.3818 C   0  0  0  0  0  0  0  0  0  0  0  0
    2.8796   -0.2731    0.0471 C   0  0  0  0  0  0  0  0  0  0  0  0
   -2.8231   -0.4437   -0.0686 C   0  0  0  0  0  0  0  0  0  0  0  0
   -0.8779    1.9030   -1.0550 C   0  0  0  0  0  0  0  0  0  0  0  0
    4.3360   -0.1137    0.0406 C   0  0  0  0  0  0  0  0  0  0  0  0
   -3.5435    0.5370    0.6131 C   0  0  0  0  0  0  0  0  0  0  0  0
   -3.4967   -1.4218   -0.8002 C   0  0  0  0  0  0  0  0  0  0  0  0
    5.0096    0.0941   -1.1632 C   0  0  0  0  0  0  0  0  0  0  0  0
    5.0492   -0.1697    1.2381 C   0  0  0  0  0  0  0  0  0  0  0  0
   -4.9375    0.5400    0.5632 C   0  0  0  0  0  0  0  0  0  0  0  0
   -4.8907   -1.4191   -0.8499 C   0  0  0  0  0  0  0  0  0  0  0  0
   -5.6112   -0.4382   -0.1683 C   0  0  0  0  0  0  0  0  0  0  0  0
    6.3962    0.2458   -1.1692 C   0  0  0  0  0  0  0  0  0  0  0  0
    6.4358   -0.0178    1.2320 C   0  0  0  0  0  0  0  0  0  0  0  0
    7.1093    0.1900    0.0283 C   0  0  0  0  0  0  0  0  0  0  0  0
    2.1499    1.5947   -0.8076 H   0  0  0  0  0  0  0  0  0  0  0  0
   -0.2210    2.0999   -1.9091 H   0  0  0  0  0  0  0  0  0  0  0  0
   -1.9102    1.9616   -1.4128 H   0  0  0  0  0  0  0  0  0  0  0  0
   -3.0215    1.2975    1.1911 H   0  0  0  0  0  0  0  0  0  0  0  0
   -2.9504   -2.1927   -1.3386 H   0  0  0  0  0  0  0  0  0  0  0  0
    4.4710    0.1375   -2.1068 H   0  0  0  0  0  0  0  0  0  0  0  0
    4.5438   -0.3225    2.1886 H   0  0  0  0  0  0  0  0  0  0  0  0
   -5.3994   -2.1887   -1.4252 H   0  0  0  0  0  0  0  0  0  0  0  0
   -0.8811    3.7800   -0.5336 H   0  0  0  0  0  0  0  0  0  0  0  0
    6.9209    0.4070   -2.1064 H   0  0  0  0  0  0  0  0  0  0  0  0
    6.9910   -0.0594    2.1645 H   0  0  0  0  0  0  0  0  0  0  0  0
    8.1889    0.3085    0.0235 H   0  0  0  0  0  0  0  0  0  0  0  0
  1 19  1  0  0  0  0
  2 21  1  0  0  0  0
  3  9  1  0  0  0  0
  3 11  1  0  0  0  0
  4 13  1  0  0  0  0
  4 33  1  0  0  0  0
  5  7  1  0  0  0  0
  5  9  1  0  0  0  0
  5 10  1  0  0  0  0
  6  8  1  0  0  0  0
  6  9  2  0  0  0  0
  7  8  2  0  0  0  0
  7 13  1  0  0  0  0
  8 12  1  0  0  0  0
 10 11  2  0  0  0  0
 10 25  1  0  0  0  0
 11 14  1  0  0  0  0
 12 15  2  0  0  0  0
 12 16  1  0  0  0  0
 13 26  1  0  0  0  0
 13 27  1  0  0  0  0
 14 17  2  0  0  0  0
 14 18  1  0  0  0  0
 15 19  1  0  0  0  0
 15 28  1  0  0  0  0
 16 20  2  0  0  0  0
 16 29  1  0  0  0  0
 17 22  1  0  0  0  0
 17 30  1  0  0  0  0
 18 23  2  0  0  0  0
 18 31  1  0  0  0  0
 19 21  2  0  0  0  0
 20 21  1  0  0  0  0
 20 32  1  0  0  0  0
 22 24  2  0  0  0  0
 22 34  1  0  0  0  0
 23 24  1  0  0  0  0
 23 35  1  0  0  0  0
 24 36  1  0  0  0  0
M  END
> <PUBCHEM_COMPOUND_CID>
82367708

> <PUBCHEM_CONFORMER_RMSD>
0.6

> <PUBCHEM_CONFORMER_DIVERSEORDER>
1
8
13
4
7
2
11
10
3
14
6
16
9
12
5
15

> <PUBCHEM_MMFF94_PARTIAL_CHARGES>
34
1 -0.18
10 -0.18
11 0.07
12 0.05
13 0.46
14 0.03
15 -0.15
16 -0.15
17 -0.15
18 -0.15
19 0.18
2 -0.18
20 -0.15
21 0.18
22 -0.15
23 -0.15
24 -0.15
25 0.15
28 0.15
29 0.15
3 -0.16
30 0.15
31 0.15
32 0.15
33 0.4
34 0.15
35 0.15
36 0.15
4 -0.68
5 0.33
6 -0.57
7 -0.33
8 0.17
9 0.24

> <PUBCHEM_EFFECTIVE_ROTOR_COUNT>
3

> <PUBCHEM_PHARMACOPHORE_FEATURES>
7
1 4 acceptor
1 4 donor
3 5 6 9 cation
5 3 5 9 10 11 rings
5 5 6 7 8 9 rings
6 12 15 16 19 20 21 rings
6 14 17 18 22 23 24 rings

> <PUBCHEM_HEAVY_ATOM_COUNT>
24

> <PUBCHEM_ATOM_DEF_STEREO_COUNT>
0

> <PUBCHEM_ATOM_UDEF_STEREO_COUNT>
0

> <PUBCHEM_BOND_DEF_STEREO_COUNT>
0

> <PUBCHEM_BOND_UDEF_STEREO_COUNT>
0

> <PUBCHEM_ISOTOPIC_ATOM_COUNT>
0

> <PUBCHEM_COMPONENT_COUNT>
1

> <PUBCHEM_CACTVS_TAUTO_COUNT>
1

> <PUBCHEM_CONFORMER_ID>
04E8D4DC00000001

> <PUBCHEM_MMFF94_ENERGY>
67.0996

> <PUBCHEM_FEATURE_SELFOVERLAP>
35.774

> <PUBCHEM_SHAPE_FINGERPRINT>
10 15 14634870890382176190
10050765 1 18045494210529261742
10090160 65 17676204663054919810
10906281 52 18188788200810740586
11315181 36 18412265064869881603
11578080 2 12390421230297904507
12166972 35 17240482520588947020
12236239 1 18341614793928245947
12390115 104 18198350558874719464
12516196 113 18411417323555265957
12741549 16 16877660172061000349
12788726 201 18114454570189807184
13140716 1 18115874177530174106
13533116 47 17676198049480225354
13862211 1 18260263066391397126
14251764 18 18407760335476325179
14251764 46 16515682251607690411
14294032 229 18264779748727418348
14849402 71 18267306606815529584
14856354 85 18334018324032258463
14933364 13 17275387611933230528
15048467 5 18060421287651186321
15131766 46 14997996768966834870
15183329 4 18334858328955362814
15419008 47 16917065555491248656
15461852 350 17131824375359906757
15849732 13 18059855086818965871
16087824 20 18264484002571344021
18336668 15 18409172112997489881
18681886 176 18130499834127242483
19377110 9 18114740443587192048
19489759 90 17704355476683090579
20567600 75 16200159763577138277
21236236 1 17967526831591704925
21267235 1 18341055207303456431
21304253 13 18272369788967706097
21623969 137 16515407347904608650
21641784 216 17531538581056794356
21792934 111 17968081037213393636
22224240 67 18261107491585384074
23081809 10 18335417963368351706
23402539 116 18412822503610278454
23522609 53 18190204363277146300
23536379 177 17203612579683608486
23559900 14 17274814796466602979
23569914 2 16410645798580456680
23569943 247 18124885551425808714
24771293 8 18341607179262966704
335352 9 18335979853055441615
34797466 226 16917069992244867536
350125 39 18261110764393064268
397830 11 16629104667141937010
4073 2 18272370927460989510
4325135 7 18260828194151759238
4340502 62 16056885740593214342
5104073 3 17968661652398491248
5486654 2 18333452053778921234
5758199 1 18408887338752160114
59755656 215 17917436406477730838
7226269 152 17748825215641101689

> <PUBCHEM_SHAPE_MULTIPOLES>
485.67
18.91
1.72
1.14
5.55
0.71
0.08
0.33
1.18
-1.8
0.02
0.53
0.15
-1.44

> <PUBCHEM_SHAPE_SELFOVERLAP>
1050.758

> <PUBCHEM_SHAPE_VOLUME>
271.2

> <PUBCHEM_COORDINATE_TYPE>
2
5
10

