9619281
  -OEChem-06302411133D

 38 41  0     0  0  0  0  0  0999 V2000
    6.8984   -1.0616    1.1174 Cl  0  0  0  0  0  0  0  0  0  0  0  0
    7.5042    1.8322   -0.1957 Cl  0  0  0  0  0  0  0  0  0  0  0  0
   -5.9818    2.3633    0.1933 S   0  0  0  0  0  0  0  0  0  0  0  0
    1.0600    0.6541   -0.0515 O   0  0  0  0  0  0  0  0  0  0  0  0
    1.6987   -1.5621   -0.1492 O   0  0  0  0  0  0  0  0  0  0  0  0
   -3.4731    1.8375    0.1083 N   0  0  0  0  0  0  0  0  0  0  0  0
   -4.6053   -0.0877    0.0619 N   0  0  0  0  0  0  0  0  0  0  0  0
   -0.2356    0.1199   -0.0402 N   0  0  0  0  0  0  0  0  0  0  0  0
   -2.5189    0.8689    0.0458 C   0  0  0  0  0  0  0  0  0  0  0  0
   -3.2431   -0.3094    0.0182 C   0  0  0  0  0  0  0  0  0  0  0  0
   -4.6829    1.2129    0.1151 C   0  0  0  0  0  0  0  0  0  0  0  0
   -2.6696   -1.6246   -0.0478 C   0  0  0  0  0  0  0  0  0  0  0  0
   -3.5129    3.2105    0.1631 C   0  0  0  0  0  0  0  0  0  0  0  0
   -1.1078    1.0907    0.0192 C   0  0  0  0  0  0  0  0  0  0  0  0
   -4.7770    3.6637    0.2132 C   0  0  0  0  0  0  0  0  0  0  0  0
   -2.3605   -2.3103    1.1269 C   0  0  0  0  0  0  0  0  0  0  0  0
   -2.4220   -2.2162   -1.2863 C   0  0  0  0  0  0  0  0  0  0  0  0
   -1.8037   -3.5877    1.0630 C   0  0  0  0  0  0  0  0  0  0  0  0
   -1.8653   -3.4936   -1.3504 C   0  0  0  0  0  0  0  0  0  0  0  0
   -1.5562   -4.1793   -0.1756 C   0  0  0  0  0  0  0  0  0  0  0  0
    3.3394    0.1659   -0.1270 C   0  0  0  0  0  0  0  0  0  0  0  0
    4.3504   -0.5913    0.4278 C   0  0  0  0  0  0  0  0  0  0  0  0
    3.5721    1.4020   -0.6937 C   0  0  0  0  0  0  0  0  0  0  0  0
    1.9533   -0.3678   -0.1133 C   0  0  0  0  0  0  0  0  0  0  0  0
    5.6521   -0.0901    0.4153 C   0  0  0  0  0  0  0  0  0  0  0  0
    4.8737    1.9032   -0.7063 C   0  0  0  0  0  0  0  0  0  0  0  0
    5.9136    1.1571   -0.1517 C   0  0  0  0  0  0  0  0  0  0  0  0
   -2.6118    3.8044    0.1631 H   0  0  0  0  0  0  0  0  0  0  0  0
   -0.7539    2.1370    0.0510 H   0  0  0  0  0  0  0  0  0  0  0  0
   -5.0653    4.7043    0.2613 H   0  0  0  0  0  0  0  0  0  0  0  0
   -2.5472   -1.8631    2.1004 H   0  0  0  0  0  0  0  0  0  0  0  0
   -2.6571   -1.6950   -2.2113 H   0  0  0  0  0  0  0  0  0  0  0  0
   -1.5623   -4.1214    1.9776 H   0  0  0  0  0  0  0  0  0  0  0  0
   -1.6720   -3.9542   -2.3148 H   0  0  0  0  0  0  0  0  0  0  0  0
   -1.1222   -5.1737   -0.2254 H   0  0  0  0  0  0  0  0  0  0  0  0
    4.1406   -1.5610    0.8717 H   0  0  0  0  0  0  0  0  0  0  0  0
    2.7833    1.9964   -1.1446 H   0  0  0  0  0  0  0  0  0  0  0  0
    5.0603    2.8758   -1.1548 H   0  0  0  0  0  0  0  0  0  0  0  0
  1 25  1  0  0  0  0
  2 27  1  0  0  0  0
  3 11  1  0  0  0  0
  3 15  1  0  0  0  0
  4  8  1  0  0  0  0
  4 24  1  0  0  0  0
  5 24  2  0  0  0  0
  6  9  1  0  0  0  0
  6 11  1  0  0  0  0
  6 13  1  0  0  0  0
  7 10  1  0  0  0  0
  7 11  2  0  0  0  0
  8 14  2  0  0  0  0
  9 10  2  0  0  0  0
  9 14  1  0  0  0  0
 10 12  1  0  0  0  0
 12 16  2  0  0  0  0
 12 17  1  0  0  0  0
 13 15  2  0  0  0  0
 13 28  1  0  0  0  0
 14 29  1  0  0  0  0
 15 30  1  0  0  0  0
 16 18  1  0  0  0  0
 16 31  1  0  0  0  0
 17 19  2  0  0  0  0
 17 32  1  0  0  0  0
 18 20  2  0  0  0  0
 18 33  1  0  0  0  0
 19 20  1  0  0  0  0
 19 34  1  0  0  0  0
 20 35  1  0  0  0  0
 21 22  2  0  0  0  0
 21 23  1  0  0  0  0
 21 24  1  0  0  0  0
 22 25  1  0  0  0  0
 22 36  1  0  0  0  0
 23 26  2  0  0  0  0
 23 37  1  0  0  0  0
 25 27  2  0  0  0  0
 26 27  1  0  0  0  0
 26 38  1  0  0  0  0
M  END
> <PUBCHEM_COMPOUND_CID>
9619281

> <PUBCHEM_CONFORMER_RMSD>
0.8

> <PUBCHEM_CONFORMER_DIVERSEORDER>
1
122
60
153
167
180
192
61
109
69
113
66
23
138
198
35
194
39
202
196
179
51
154
44
118
127
133
83
129
117
13
57
5
104
211
193
173
12
16
201
106
15
6
80
176
200
115
131
184
120
38
62
9
91
3
93
152
206
190
172
19
4
158
107
155
50
195
137
178
55
72
161
34
78
207
100
74
149
18
124
58
171
25
63
175
98
71
186
187
126
17
84
2
144
183
49
141
128
77
208
188
148
96
53
182
150
89
166
210
56
130
27
145
64
87
139
36
76
68
116
114
94
156
108
169
65
99
40
119
14
203
111
189
92
123
146
85
90
151
134
165
159
162
170
7
28
26
177
82
42
48
163
136
59
24
181
81
147
88
70
204
143
174
132
45
41
10
199
79
140
97
86
185
209
168
197
33
46
110
37
125
135
52
11
43
157
121
75
160
142
105
54
164
102
103
112
47
205
101
29
212
32
95
191
67
8
30
31
22
21
20
73

> <PUBCHEM_MMFF94_PARTIAL_CHARGES>
38
1 -0.18
10 0.17
11 0.24
12 0.05
13 -0.18
14 0.47
15 -0.05
16 -0.15
17 -0.15
18 -0.15
19 -0.15
2 -0.18
20 -0.15
21 0.09
22 -0.15
23 -0.15
24 0.63
25 0.18
26 -0.15
27 0.18
28 0.15
29 0.06
3 -0.16
30 0.15
31 0.15
32 0.15
33 0.15
34 0.15
35 0.15
36 0.15
37 0.15
38 0.15
4 -0.09
5 -0.57
6 0.33
7 -0.57
8 -0.51
9 -0.24

> <PUBCHEM_EFFECTIVE_ROTOR_COUNT>
5

> <PUBCHEM_PHARMACOPHORE_FEATURES>
7
1 5 acceptor
1 8 acceptor
3 6 7 11 cation
5 3 6 11 13 15 rings
5 6 7 9 10 11 rings
6 12 16 17 18 19 20 rings
6 21 22 23 25 26 27 rings

> <PUBCHEM_HEAVY_ATOM_COUNT>
27

> <PUBCHEM_ATOM_DEF_STEREO_COUNT>
0

> <PUBCHEM_ATOM_UDEF_STEREO_COUNT>
0

> <PUBCHEM_BOND_DEF_STEREO_COUNT>
1

> <PUBCHEM_BOND_UDEF_STEREO_COUNT>
0

> <PUBCHEM_ISOTOPIC_ATOM_COUNT>
0

> <PUBCHEM_COMPONENT_COUNT>
1

> <PUBCHEM_CACTVS_TAUTO_COUNT>
1

> <PUBCHEM_CONFORMER_ID>
0092C75100000001

> <PUBCHEM_MMFF94_ENERGY>
71.6013

> <PUBCHEM_FEATURE_SELFOVERLAP>
35.789

> <PUBCHEM_SHAPE_FINGERPRINT>
10190206 1 18272354370999893477
10411042 1 17834958951323938959
10483366 6 18057587958668876735
10595046 47 18263082292179187988
10675989 125 17765159371289372857
10940486 97 18335987578963648636
11227688 84 17114383096152630262
12107183 9 18262791849332064082
12166972 35 11959432505957261003
12616971 3 17240483641564770412
12788726 201 18338505465408500915
14251757 5 18341615948952779929
14251764 75 18197788700133044529
14659021 117 18052524762639682818
14790565 3 18266744588943454985
14844126 61 18265617765476186835
15131766 46 15794010214009777733
15250474 111 18335971061163012490
15400415 2 18410855430506755712
15463212 79 18334005095216066491
15927050 60 18340767040325483631
16087824 20 18340486769004823463
16719943 64 18411136905404072475
17844677 252 18266465497963334756
20101258 96 18050296061338696963
20511986 3 18114732789913616432
20554085 129 17985526885258389665
21133410 171 17189194817022510094
21236236 1 18338797930973997558
21859007 373 17461151059034419509
229767 44 18333733485663703477
23559900 14 18128257788100026894
23728640 28 18410576223431383875
249057 3 18336828594221866804
25019877 29 18342745087924158965
3411729 13 18049726218490455169
3610482 184 18042702739690388188
4073 2 18187088399453570970
5104073 3 18261664966019778312
5171179 24 17628625646498833273
5265222 85 18341895216231605400
5364581 5 17983561181848820056
559249 180 18409163290506338402
58260988 114 16371582517304156155
6327066 14 18337951186988639269
6700243 42 17623893340100328310
7288768 16 17967255290932573539
9981440 41 18337116662036940707

> <PUBCHEM_SHAPE_MULTIPOLES>
536.55
16.87
4.68
0.95
26.95
2.79
0.04
-12.95
-1.85
-7.49
0.15
0.09
0.63
-1.49

> <PUBCHEM_SHAPE_SELFOVERLAP>
1159.599

> <PUBCHEM_SHAPE_VOLUME>
298.5

> <PUBCHEM_COORDINATE_TYPE>
2
5
10

