9623088
  -OEChem-06302411133D

 43 46  0     0  0  0  0  0  0999 V2000
   -7.3828    0.6787    2.3928 Cl  0  0  0  0  0  0  0  0  0  0  0  0
   -8.9023    0.4937   -0.4576 Cl  0  0  0  0  0  0  0  0  0  0  0  0
    3.9023   -3.9642    0.0995 S   0  0  0  0  0  0  0  0  0  0  0  0
    1.8905    1.1345   -0.0543 S   0  0  0  0  0  0  0  0  0  0  0  0
   -2.3468   -0.2988   -0.1662 O   0  0  0  0  0  0  0  0  0  0  0  0
    1.6532   -2.7356    0.0050 N   0  0  0  0  0  0  0  0  0  0  0  0
    3.2921   -1.2177    0.0320 N   0  0  0  0  0  0  0  0  0  0  0  0
   -0.9527   -0.1581   -0.1237 N   0  0  0  0  0  0  0  0  0  0  0  0
    1.0195   -1.5316   -0.0365 C   0  0  0  0  0  0  0  0  0  0  0  0
    2.9913   -2.4865    0.0445 C   0  0  0  0  0  0  0  0  0  0  0  0
    2.0542   -0.6307   -0.0185 C   0  0  0  0  0  0  0  0  0  0  0  0
    1.2951   -4.0626    0.0164 C   0  0  0  0  0  0  0  0  0  0  0  0
   -0.3952   -1.3390   -0.0858 C   0  0  0  0  0  0  0  0  0  0  0  0
    3.5908    1.6661   -0.0083 C   0  0  0  0  0  0  0  0  0  0  0  0
    2.3740   -4.8621    0.0652 C   0  0  0  0  0  0  0  0  0  0  0  0
    6.2525    2.4986    0.0633 C   0  0  0  0  0  0  0  0  0  0  0  0
    4.2953    1.8534   -1.1976 C   0  0  0  0  0  0  0  0  0  0  0  0
    4.2172    1.8952    1.2167 C   0  0  0  0  0  0  0  0  0  0  0  0
   -4.4146    0.8734   -0.2525 C   0  0  0  0  0  0  0  0  0  0  0  0
   -2.9201    0.9993   -0.2065 C   0  0  0  0  0  0  0  0  0  0  0  0
    5.6263    2.2696   -1.1617 C   0  0  0  0  0  0  0  0  0  0  0  0
    5.5480    2.3114    1.2526 C   0  0  0  0  0  0  0  0  0  0  0  0
   -5.1395    0.8360    0.9334 C   0  0  0  0  0  0  0  0  0  0  0  0
   -5.0609    0.7953   -1.4811 C   0  0  0  0  0  0  0  0  0  0  0  0
    7.6753    2.9440    0.1017 C   0  0  0  0  0  0  0  0  0  0  0  0
   -6.5286    0.7191    0.8901 C   0  0  0  0  0  0  0  0  0  0  0  0
   -6.4502    0.6784   -1.5243 C   0  0  0  0  0  0  0  0  0  0  0  0
   -7.1841    0.6404   -0.3387 C   0  0  0  0  0  0  0  0  0  0  0  0
    0.2614   -4.3714   -0.0119 H   0  0  0  0  0  0  0  0  0  0  0  0
   -1.0341   -2.2406   -0.0911 H   0  0  0  0  0  0  0  0  0  0  0  0
    2.3496   -5.9425    0.0830 H   0  0  0  0  0  0  0  0  0  0  0  0
    3.8240    1.6798   -2.1619 H   0  0  0  0  0  0  0  0  0  0  0  0
    3.6844    1.7545    2.1540 H   0  0  0  0  0  0  0  0  0  0  0  0
   -2.6131    1.5705    0.6789 H   0  0  0  0  0  0  0  0  0  0  0  0
   -2.5566    1.5402   -1.0896 H   0  0  0  0  0  0  0  0  0  0  0  0
    6.1641    2.4135   -2.0951 H   0  0  0  0  0  0  0  0  0  0  0  0
    6.0246    2.4883    2.2132 H   0  0  0  0  0  0  0  0  0  0  0  0
   -4.6222    0.8959    1.8881 H   0  0  0  0  0  0  0  0  0  0  0  0
   -4.4988    0.8220   -2.4105 H   0  0  0  0  0  0  0  0  0  0  0  0
    8.1782    2.5824    1.0051 H   0  0  0  0  0  0  0  0  0  0  0  0
    8.2351    2.5527   -0.7546 H   0  0  0  0  0  0  0  0  0  0  0  0
    7.7273    4.0371    0.0848 H   0  0  0  0  0  0  0  0  0  0  0  0
   -6.9445    0.6175   -2.4906 H   0  0  0  0  0  0  0  0  0  0  0  0
  1 26  1  0  0  0  0
  2 28  1  0  0  0  0
  3 10  1  0  0  0  0
  3 15  1  0  0  0  0
  4 11  1  0  0  0  0
  4 14  1  0  0  0  0
  5  8  1  0  0  0  0
  5 20  1  0  0  0  0
  6  9  1  0  0  0  0
  6 10  1  0  0  0  0
  6 12  1  0  0  0  0
  7 10  2  0  0  0  0
  7 11  1  0  0  0  0
  8 13  2  0  0  0  0
  9 11  2  0  0  0  0
  9 13  1  0  0  0  0
 12 15  2  0  0  0  0
 12 29  1  0  0  0  0
 13 30  1  0  0  0  0
 14 17  2  0  0  0  0
 14 18  1  0  0  0  0
 15 31  1  0  0  0  0
 16 21  2  0  0  0  0
 16 22  1  0  0  0  0
 16 25  1  0  0  0  0
 17 21  1  0  0  0  0
 17 32  1  0  0  0  0
 18 22  2  0  0  0  0
 18 33  1  0  0  0  0
 19 20  1  0  0  0  0
 19 23  2  0  0  0  0
 19 24  1  0  0  0  0
 20 34  1  0  0  0  0
 20 35  1  0  0  0  0
 21 36  1  0  0  0  0
 22 37  1  0  0  0  0
 23 26  1  0  0  0  0
 23 38  1  0  0  0  0
 24 27  2  0  0  0  0
 24 39  1  0  0  0  0
 25 40  1  0  0  0  0
 25 41  1  0  0  0  0
 25 42  1  0  0  0  0
 26 28  2  0  0  0  0
 27 28  1  0  0  0  0
 27 43  1  0  0  0  0
M  END
> <PUBCHEM_COMPOUND_CID>
9623088

> <PUBCHEM_CONFORMER_RMSD>
1

> <PUBCHEM_CONFORMER_DIVERSEORDER>
2
38
71
96
502
178
560
373
220
394
25
127
4
210
202
7
525
176
151
430
117
336
21
95
479
136
45
65
267
214
337
93
141
424
324
49
366
10
133
318
139
126
246
311
161
78
132
64
375
6
490
170
36
229
53
144
76
398
283
81
471
24
8
501
372
1
109
317
86
175
277
274
542
302
188
356
396
13
110
75
395
329
42
12
112
37
70
486
436
153
551
313
499
56
47
288
116
381
291
534
199
39
250
254
23
156
492
601
463
569
35
442
94
519
266
218
63
319
32
303
54
198
172
101
334
300
450
226
103
123
14
299
83
162
327
62
57
473
120
197
570
67
124
52
29
238
90
174
364
34
142
296
349
19
60
548
44
66
55
58
40
15
118
16
77
43
28

> <PUBCHEM_MMFF94_PARTIAL_CHARGES>
38
1 -0.18
10 0.24
11 0.28
12 -0.18
13 0.47
14 0.1
15 -0.05
16 -0.14
17 -0.15
18 -0.15
19 -0.14
2 -0.18
20 0.42
21 -0.15
22 -0.15
23 -0.15
24 -0.15
25 0.14
26 0.18
27 -0.15
28 0.18
29 0.15
3 -0.16
30 0.06
31 0.15
32 0.15
33 0.15
36 0.15
37 0.15
38 0.15
39 0.15
4 -0.16
43 0.15
5 -0.22
6 0.33
7 -0.57
8 -0.51
9 -0.24

> <PUBCHEM_EFFECTIVE_ROTOR_COUNT>
6

> <PUBCHEM_PHARMACOPHORE_FEATURES>
6
1 8 acceptor
3 6 7 10 cation
5 3 6 10 12 15 rings
5 6 7 9 10 11 rings
6 14 16 17 18 21 22 rings
6 19 23 24 26 27 28 rings

> <PUBCHEM_HEAVY_ATOM_COUNT>
28

> <PUBCHEM_ATOM_DEF_STEREO_COUNT>
0

> <PUBCHEM_ATOM_UDEF_STEREO_COUNT>
0

> <PUBCHEM_BOND_DEF_STEREO_COUNT>
1

> <PUBCHEM_BOND_UDEF_STEREO_COUNT>
0

> <PUBCHEM_ISOTOPIC_ATOM_COUNT>
0

> <PUBCHEM_COMPONENT_COUNT>
1

> <PUBCHEM_CACTVS_TAUTO_COUNT>
1

> <PUBCHEM_CONFORMER_ID>
0092D63000000002

> <PUBCHEM_MMFF94_ENERGY>
62.9783

> <PUBCHEM_FEATURE_SELFOVERLAP>
30.705

> <PUBCHEM_SHAPE_FINGERPRINT>
10 15 17676204701952309297
10165383 225 18410009975027507828
10411042 1 17906169547920501782
10595046 47 18343298146652247141
10835480 77 18261105245987778109
11135926 11 18410854373797218461
11297750 10 17607235468805195222
11719270 70 18408599271343469680
12293681 160 17845940727374444152
12597179 24 18261114109797736538
12730499 353 18336272275091535890
13150687 139 17988371442325026708
13533116 47 18340769243711134715
13540713 4 17824530886276078781
13540713 5 17915751864126832185
13955234 65 18337953376994763762
14118638 360 18271798065186902983
14150023 79 18334572430627087146
14294032 229 18194406821082289522
14415360 78 18125427863960944480
14461889 52 18114186375821519187
15183329 4 15482683380720597305
15890870 6 18337953497676035860
15927050 60 18341048631614315054
17844677 252 18267023843843514797
17913733 40 18338811094616133315
19319366 153 18342731923300724302
1979834 28 18186242826912947156
20554085 129 18058717113996639024
21033648 144 18409722963900704399
21033648 29 18197771318669572520
21049683 271 18117850906696728414
22149856 69 18189075148314460121
23081809 10 17917707964785988921
23522609 53 17775018847449559817
23559900 14 17459484255895217759
23845131 108 18335983172427533394
249999 5 18409165476892878234
3411729 13 18259980479450725834
38570 142 18201443601004929542
397830 11 17967541194500068539
4073 2 18335422387786209307
4516262 110 18412537730399741829
513532 50 16056586690995489216
5385378 56 18410859850049092080
54076057 127 18271537433043004939
5758199 1 18343302599805820113
5912855 24 18272359924055640119
9849439 229 18266456697549289788
9962374 69 18338785711782199047

> <PUBCHEM_SHAPE_MULTIPOLES>
566.85
23.5
4.91
1.3
38.62
7.64
0.34
-21.11
1.57
-13.42
0.21
2.03
-0.75
-0.02

> <PUBCHEM_SHAPE_SELFOVERLAP>
1190.084

> <PUBCHEM_SHAPE_VOLUME>
324.4

> <PUBCHEM_COORDINATE_TYPE>
2
5
10

