9628525
  -OEChem-06302411133D

 39 42  0     0  0  0  0  0  0999 V2000
   -0.5083    5.5706   -0.0015 Cl  0  0  0  0  0  0  0  0  0  0  0  0
    3.6333   -0.2534   -2.7266 Cl  0  0  0  0  0  0  0  0  0  0  0  0
    3.6350   -0.2457    2.7258 Cl  0  0  0  0  0  0  0  0  0  0  0  0
   -5.6032   -2.5725   -0.0010 S   0  0  0  0  0  0  0  0  0  0  0  0
    1.4363   -0.8343    0.0009 O   0  0  0  0  0  0  0  0  0  0  0  0
   -3.0953   -2.0360    0.0011 N   0  0  0  0  0  0  0  0  0  0  0  0
   -4.2337   -0.1139   -0.0009 N   0  0  0  0  0  0  0  0  0  0  0  0
    0.1385   -0.3042    0.0005 N   0  0  0  0  0  0  0  0  0  0  0  0
   -2.1437   -1.0627    0.0015 C   0  0  0  0  0  0  0  0  0  0  0  0
   -2.8717    0.1137    0.0003 C   0  0  0  0  0  0  0  0  0  0  0  0
   -4.3074   -1.4159   -0.0006 C   0  0  0  0  0  0  0  0  0  0  0  0
   -2.3022    1.4320   -0.0001 C   0  0  0  0  0  0  0  0  0  0  0  0
   -3.1307   -3.4102    0.0017 C   0  0  0  0  0  0  0  0  0  0  0  0
   -0.7315   -1.2790    0.0019 C   0  0  0  0  0  0  0  0  0  0  0  0
   -4.3939   -3.8689    0.0009 C   0  0  0  0  0  0  0  0  0  0  0  0
   -2.0249    2.0715   -1.2083 C   0  0  0  0  0  0  0  0  0  0  0  0
   -2.0251    2.0724    1.2077 C   0  0  0  0  0  0  0  0  0  0  0  0
   -1.4702    3.3514   -1.2086 C   0  0  0  0  0  0  0  0  0  0  0  0
   -1.4705    3.3523    1.2073 C   0  0  0  0  0  0  0  0  0  0  0  0
    3.7531   -0.2960   -0.0004 C   0  0  0  0  0  0  0  0  0  0  0  0
    2.3547    0.2482   -0.0008 C   0  0  0  0  0  0  0  0  0  0  0  0
   -1.1931    3.9918   -0.0009 C   0  0  0  0  0  0  0  0  0  0  0  0
    4.4006   -0.5498   -1.2082 C   0  0  0  0  0  0  0  0  0  0  0  0
    4.4011   -0.5466    1.2077 C   0  0  0  0  0  0  0  0  0  0  0  0
    5.7006   -1.0555   -1.2078 C   0  0  0  0  0  0  0  0  0  0  0  0
    5.7011   -1.0523    1.2081 C   0  0  0  0  0  0  0  0  0  0  0  0
    6.3509   -1.3068    0.0003 C   0  0  0  0  0  0  0  0  0  0  0  0
   -2.2274   -4.0008    0.0029 H   0  0  0  0  0  0  0  0  0  0  0  0
   -0.3744   -2.3247    0.0032 H   0  0  0  0  0  0  0  0  0  0  0  0
   -4.6790   -4.9115    0.0013 H   0  0  0  0  0  0  0  0  0  0  0  0
   -2.2346    1.5858   -2.1583 H   0  0  0  0  0  0  0  0  0  0  0  0
   -2.2350    1.5872    2.1581 H   0  0  0  0  0  0  0  0  0  0  0  0
   -1.2588    3.8373   -2.1576 H   0  0  0  0  0  0  0  0  0  0  0  0
   -1.2593    3.8390    2.1560 H   0  0  0  0  0  0  0  0  0  0  0  0
    2.1679    0.8964    0.8634 H   0  0  0  0  0  0  0  0  0  0  0  0
    2.1675    0.8942   -0.8666 H   0  0  0  0  0  0  0  0  0  0  0  0
    6.2211   -1.2593   -2.1402 H   0  0  0  0  0  0  0  0  0  0  0  0
    6.2221   -1.2537    2.1407 H   0  0  0  0  0  0  0  0  0  0  0  0
    7.3631   -1.7007    0.0006 H   0  0  0  0  0  0  0  0  0  0  0  0
  1 22  1  0  0  0  0
  2 23  1  0  0  0  0
  3 24  1  0  0  0  0
  4 11  1  0  0  0  0
  4 15  1  0  0  0  0
  5  8  1  0  0  0  0
  5 21  1  0  0  0  0
  6  9  1  0  0  0  0
  6 11  1  0  0  0  0
  6 13  1  0  0  0  0
  7 10  1  0  0  0  0
  7 11  2  0  0  0  0
  8 14  2  0  0  0  0
  9 10  2  0  0  0  0
  9 14  1  0  0  0  0
 10 12  1  0  0  0  0
 12 16  2  0  0  0  0
 12 17  1  0  0  0  0
 13 15  2  0  0  0  0
 13 28  1  0  0  0  0
 14 29  1  0  0  0  0
 15 30  1  0  0  0  0
 16 18  1  0  0  0  0
 16 31  1  0  0  0  0
 17 19  2  0  0  0  0
 17 32  1  0  0  0  0
 18 22  2  0  0  0  0
 18 33  1  0  0  0  0
 19 22  1  0  0  0  0
 19 34  1  0  0  0  0
 20 21  1  0  0  0  0
 20 23  2  0  0  0  0
 20 24  1  0  0  0  0
 21 35  1  0  0  0  0
 21 36  1  0  0  0  0
 23 25  1  0  0  0  0
 24 26  2  0  0  0  0
 25 27  2  0  0  0  0
 25 37  1  0  0  0  0
 26 27  1  0  0  0  0
 26 38  1  0  0  0  0
 27 39  1  0  0  0  0
M  END
> <PUBCHEM_COMPOUND_CID>
9628525

> <PUBCHEM_CONFORMER_RMSD>
0.8

> <PUBCHEM_CONFORMER_DIVERSEORDER>
1
40
19
29
9
2
18
16
8
34
14
42
35
26
25
15
7
41
28
10
4
11
24
27
32
20
3
33
21
5
12
23
37
22
13
36
17
39
30
6
31
38

> <PUBCHEM_MMFF94_PARTIAL_CHARGES>
37
1 -0.18
10 0.17
11 0.24
12 0.05
13 -0.18
14 0.47
15 -0.05
16 -0.15
17 -0.15
18 -0.15
19 -0.15
2 -0.18
20 -0.14
21 0.42
22 0.18
23 0.18
24 0.18
25 -0.15
26 -0.15
27 -0.15
28 0.15
29 0.06
3 -0.18
30 0.15
31 0.15
32 0.15
33 0.15
34 0.15
37 0.15
38 0.15
39 0.15
4 -0.16
5 -0.22
6 0.33
7 -0.57
8 -0.51
9 -0.24

> <PUBCHEM_EFFECTIVE_ROTOR_COUNT>
5

> <PUBCHEM_PHARMACOPHORE_FEATURES>
6
1 8 acceptor
3 6 7 11 cation
5 4 6 11 13 15 rings
5 6 7 9 10 11 rings
6 12 16 17 18 19 22 rings
6 20 23 24 25 26 27 rings

> <PUBCHEM_HEAVY_ATOM_COUNT>
27

> <PUBCHEM_ATOM_DEF_STEREO_COUNT>
0

> <PUBCHEM_ATOM_UDEF_STEREO_COUNT>
0

> <PUBCHEM_BOND_DEF_STEREO_COUNT>
1

> <PUBCHEM_BOND_UDEF_STEREO_COUNT>
0

> <PUBCHEM_ISOTOPIC_ATOM_COUNT>
0

> <PUBCHEM_COMPONENT_COUNT>
1

> <PUBCHEM_CACTVS_TAUTO_COUNT>
1

> <PUBCHEM_CONFORMER_ID>
0092EB6D00000001

> <PUBCHEM_MMFF94_ENERGY>
67.605

> <PUBCHEM_FEATURE_SELFOVERLAP>
30.701

> <PUBCHEM_SHAPE_FINGERPRINT>
10622 236 17460012042635077914
10670039 82 18336549322584841830
10937287 8 17474386872635702389
11045515 52 18260829349635118229
11056379 131 18338238150442384870
11059845 2 17543321897459276290
11545043 162 18201434736836378818
11552529 35 18262794060902364228
12107183 9 17468749694374743282
12166972 35 17749391524232776511
12342043 65 17703523125080582086
12788726 201 18187360996026161651
13257819 101 13757252696498357003
13540713 5 17768540740014492067
13583140 156 17845076408161298502
13782708 43 17775287166519845678
14068700 675 18260546753307738796
14294032 229 18118690920184043021
14347332 77 18408602539676730578
14910302 57 18129677287296468654
15419008 47 18060701702097970816
15484559 13 14741821872037965198
15961568 22 18267298919277522864
16067689 68 17683494292989819394
17686467 74 18337669836897867328
17844677 252 18411140221662163410
19315092 285 16953618854512726360
20600515 1 18272100409145804285
20775438 99 17112399573235212515
21033648 29 17274242969216571362
21033650 10 18046936826141763990
21065201 7 18271243812336488242
2132832 1 18040716995757556996
2297311 6 18412831295440319415
23366157 5 17611742701990312629
23557571 272 18271813397333588343
23559900 14 18339918328605422689
3886686 26 17616506494525891946
4409770 3 18189322499559492221
469060 322 18339656567697562217
508706 21 18127966421724125080
6700243 42 17913242869049876380
7399639 24 18060697312531026878
9849439 229 17474384678224191712
9981440 41 17759521067341345521

> <PUBCHEM_SHAPE_MULTIPOLES>
544.29
13.19
5.55
1.67
14.23
7.73
0
-14.09
0
-8.76
0
2.93
0.23
0.01

> <PUBCHEM_SHAPE_SELFOVERLAP>
1158.453

> <PUBCHEM_SHAPE_VOLUME>
308.7

> <PUBCHEM_COORDINATE_TYPE>
2
5
10

