9633071
  -OEChem-06302411133D

 39 42  0     0  0  0  0  0  0999 V2000
    6.3078    0.7362   -2.3540 Cl  0  0  0  0  0  0  0  0  0  0  0  0
    7.7247    1.1760    0.5211 Cl  0  0  0  0  0  0  0  0  0  0  0  0
   -5.7623    2.5747   -0.0815 S   0  0  0  0  0  0  0  0  0  0  0  0
    1.1651    0.4469    0.1610 O   0  0  0  0  0  0  0  0  0  0  0  0
   -3.2897    1.8993    0.0056 N   0  0  0  0  0  0  0  0  0  0  0  0
   -4.5309    0.0441   -0.0864 N   0  0  0  0  0  0  0  0  0  0  0  0
   -0.1586   -0.0097    0.0953 N   0  0  0  0  0  0  0  0  0  0  0  0
   -2.3938    0.8747    0.0200 C   0  0  0  0  0  0  0  0  0  0  0  0
   -3.1847   -0.2589   -0.0376 C   0  0  0  0  0  0  0  0  0  0  0  0
   -4.5330    1.3478   -0.0576 C   0  0  0  0  0  0  0  0  0  0  0  0
   -2.6887   -1.6068   -0.0466 C   0  0  0  0  0  0  0  0  0  0  0  0
   -3.2498    3.2730    0.0374 C   0  0  0  0  0  0  0  0  0  0  0  0
   -0.9731    1.0117    0.0825 C   0  0  0  0  0  0  0  0  0  0  0  0
   -4.4848    3.8014   -0.0019 C   0  0  0  0  0  0  0  0  0  0  0  0
   -2.4980   -2.2877    1.1558 C   0  0  0  0  0  0  0  0  0  0  0  0
   -2.3981   -2.2350   -1.2574 C   0  0  0  0  0  0  0  0  0  0  0  0
    3.4468   -0.2196    0.2436 C   0  0  0  0  0  0  0  0  0  0  0  0
   -2.0164   -3.5968    1.1473 C   0  0  0  0  0  0  0  0  0  0  0  0
   -1.9166   -3.5442   -1.2661 C   0  0  0  0  0  0  0  0  0  0  0  0
    2.0219   -0.6848    0.1734 C   0  0  0  0  0  0  0  0  0  0  0  0
   -1.7259   -4.2251   -0.0637 C   0  0  0  0  0  0  0  0  0  0  0  0
    4.1519    0.0194   -0.9306 C   0  0  0  0  0  0  0  0  0  0  0  0
    4.0491   -0.0318    1.4827 C   0  0  0  0  0  0  0  0  0  0  0  0
    5.4763    0.4519   -0.8650 C   0  0  0  0  0  0  0  0  0  0  0  0
    5.3735    0.4007    1.5483 C   0  0  0  0  0  0  0  0  0  0  0  0
    6.0871    0.6426    0.3744 C   0  0  0  0  0  0  0  0  0  0  0  0
   -2.3163    3.8122    0.0877 H   0  0  0  0  0  0  0  0  0  0  0  0
   -0.5596    2.0357    0.1217 H   0  0  0  0  0  0  0  0  0  0  0  0
   -4.7120    4.8579    0.0119 H   0  0  0  0  0  0  0  0  0  0  0  0
   -2.7196   -1.8121    2.1083 H   0  0  0  0  0  0  0  0  0  0  0  0
   -2.5411   -1.7181   -2.2034 H   0  0  0  0  0  0  0  0  0  0  0  0
    1.8609   -1.2846   -0.7315 H   0  0  0  0  0  0  0  0  0  0  0  0
    1.7864   -1.3213    1.0359 H   0  0  0  0  0  0  0  0  0  0  0  0
   -1.8675   -4.1269    2.0835 H   0  0  0  0  0  0  0  0  0  0  0  0
   -1.6899   -4.0334   -2.2089 H   0  0  0  0  0  0  0  0  0  0  0  0
   -1.3507   -5.2443   -0.0704 H   0  0  0  0  0  0  0  0  0  0  0  0
    3.6690   -0.1291   -1.8938 H   0  0  0  0  0  0  0  0  0  0  0  0
    3.5016   -0.2153    2.4031 H   0  0  0  0  0  0  0  0  0  0  0  0
    5.8337    0.5444    2.5227 H   0  0  0  0  0  0  0  0  0  0  0  0
  1 24  1  0  0  0  0
  2 26  1  0  0  0  0
  3 10  1  0  0  0  0
  3 14  1  0  0  0  0
  4  7  1  0  0  0  0
  4 20  1  0  0  0  0
  5  8  1  0  0  0  0
  5 10  1  0  0  0  0
  5 12  1  0  0  0  0
  6  9  1  0  0  0  0
  6 10  2  0  0  0  0
  7 13  2  0  0  0  0
  8  9  2  0  0  0  0
  8 13  1  0  0  0  0
  9 11  1  0  0  0  0
 11 15  2  0  0  0  0
 11 16  1  0  0  0  0
 12 14  2  0  0  0  0
 12 27  1  0  0  0  0
 13 28  1  0  0  0  0
 14 29  1  0  0  0  0
 15 18  1  0  0  0  0
 15 30  1  0  0  0  0
 16 19  2  0  0  0  0
 16 31  1  0  0  0  0
 17 20  1  0  0  0  0
 17 22  2  0  0  0  0
 17 23  1  0  0  0  0
 18 21  2  0  0  0  0
 18 34  1  0  0  0  0
 19 21  1  0  0  0  0
 19 35  1  0  0  0  0
 20 32  1  0  0  0  0
 20 33  1  0  0  0  0
 21 36  1  0  0  0  0
 22 24  1  0  0  0  0
 22 37  1  0  0  0  0
 23 25  2  0  0  0  0
 23 38  1  0  0  0  0
 24 26  2  0  0  0  0
 25 26  1  0  0  0  0
 25 39  1  0  0  0  0
M  END
> <PUBCHEM_COMPOUND_CID>
9633071

> <PUBCHEM_CONFORMER_RMSD>
0.8

> <PUBCHEM_CONFORMER_DIVERSEORDER>
1
35
14
83
77
59
60
67
52
86
24
47
7
33
88
10
29
48
5
72
32
38
3
31
73
13
8
37
22
12
61
51
82
81
6
62
36
26
44
57
40
64
11
41
19
30
68
17
27
9
79
16
84
74
50
55
21
34
65
58
15
28
18
54
4
80
42
63
87
2
75
56
39
23
46
53
25
70
76
71
85
45
69
20
43
89
49
66
78

> <PUBCHEM_MMFF94_PARTIAL_CHARGES>
37
1 -0.18
10 0.24
11 0.05
12 -0.18
13 0.47
14 -0.05
15 -0.15
16 -0.15
17 -0.14
18 -0.15
19 -0.15
2 -0.18
20 0.42
21 -0.15
22 -0.15
23 -0.15
24 0.18
25 -0.15
26 0.18
27 0.15
28 0.06
29 0.15
3 -0.16
30 0.15
31 0.15
34 0.15
35 0.15
36 0.15
37 0.15
38 0.15
39 0.15
4 -0.22
5 0.33
6 -0.57
7 -0.51
8 -0.24
9 0.17

> <PUBCHEM_EFFECTIVE_ROTOR_COUNT>
5

> <PUBCHEM_PHARMACOPHORE_FEATURES>
6
1 7 acceptor
3 5 6 10 cation
5 3 5 10 12 14 rings
5 5 6 8 9 10 rings
6 11 15 16 18 19 21 rings
6 17 22 23 24 25 26 rings

> <PUBCHEM_HEAVY_ATOM_COUNT>
26

> <PUBCHEM_ATOM_DEF_STEREO_COUNT>
0

> <PUBCHEM_ATOM_UDEF_STEREO_COUNT>
0

> <PUBCHEM_BOND_DEF_STEREO_COUNT>
1

> <PUBCHEM_BOND_UDEF_STEREO_COUNT>
0

> <PUBCHEM_ISOTOPIC_ATOM_COUNT>
0

> <PUBCHEM_COMPONENT_COUNT>
1

> <PUBCHEM_CACTVS_TAUTO_COUNT>
1

> <PUBCHEM_CONFORMER_ID>
0092FD2F00000001

> <PUBCHEM_MMFF94_ENERGY>
63.7

> <PUBCHEM_FEATURE_SELFOVERLAP>
30.701

> <PUBCHEM_SHAPE_FINGERPRINT>
10411042 1 17978507869510487159
10675989 125 17765720117845300624
107951 10 18341055129546048991
10940486 97 18335422421323210036
11056379 131 18338524152436451502
11135609 187 18190727666888176589
12107183 9 18118108183600905322
12166972 35 12535046638560066305
12390115 104 18199757959818045121
12616971 3 17095520708675455100
12788726 201 18336814394976363627
14251757 5 18412552019470903760
14251764 75 18125164840353076777
14659021 117 18052804034271829314
14790565 3 18194682571004718865
14844126 61 18264768929609451691
15131766 46 15865500430267942582
15463212 79 18261383425890622643
16087824 20 18411696613813122639
17844677 252 18269556208021820072
19304144 158 17985825059606666360
19319366 153 17603864442851649720
20511986 3 17822278081540265792
20554085 129 18055609760797599873
20681677 155 18410009931591940586
21315764 119 18268162985218960078
23559900 14 18130781295981934632
23728640 28 18409727396191409179
3383291 50 18339642351873367739
3411729 13 17975976463167229337
3610482 184 18041293144319525990
4015057 19 16702011011088862393
4073 2 18409167732278047594
44249763 50 17916571163941036344
497634 4 16371294453410146067
508706 21 18129940195309016894
5219985 13 18192429680290452629
5265222 85 18340775930474301612
5364581 5 18054776549942993704
58260988 114 16298961960443742307
6327066 14 18265044748483459461
7288768 16 17894914001425176243
9981440 41 18336268921471086611

> <PUBCHEM_SHAPE_MULTIPOLES>
521.84
17.02
4.52
1.35
30.15
2.86
0.35
-13.13
0.93
-10.38
0.12
2.26
0.43
-0.17

> <PUBCHEM_SHAPE_SELFOVERLAP>
1118.185

> <PUBCHEM_SHAPE_VOLUME>
293.2

> <PUBCHEM_COORDINATE_TYPE>
2
5
10

