9637149
  -OEChem-06302411133D

 43 46  0     0  0  0  0  0  0999 V2000
   -5.9558   -5.7093   -0.0142 Cl  0  0  0  0  0  0  0  0  0  0  0  0
    7.0674   -1.4937   -2.3750 Cl  0  0  0  0  0  0  0  0  0  0  0  0
    8.5718   -1.6569    0.4847 Cl  0  0  0  0  0  0  0  0  0  0  0  0
   -2.1061    0.0230    0.0186 S   0  0  0  0  0  0  0  0  0  0  0  0
   -2.9831    5.4343   -0.1060 S   0  0  0  0  0  0  0  0  0  0  0  0
    2.3386    0.5185    0.1635 O   0  0  0  0  0  0  0  0  0  0  0  0
   -1.0485    3.7535   -0.0103 N   0  0  0  0  0  0  0  0  0  0  0  0
   -2.9733    2.6205   -0.0566 N   0  0  0  0  0  0  0  0  0  0  0  0
    0.9468    0.6787    0.1125 N   0  0  0  0  0  0  0  0  0  0  0  0
   -0.6864    2.4419    0.0250 C   0  0  0  0  0  0  0  0  0  0  0  0
   -1.8899    1.7780   -0.0048 C   0  0  0  0  0  0  0  0  0  0  0  0
   -2.4086    3.7960   -0.0575 C   0  0  0  0  0  0  0  0  0  0  0  0
   -0.4155    4.9737   -0.0099 C   0  0  0  0  0  0  0  0  0  0  0  0
   -3.9219   -0.0623   -0.0425 C   0  0  0  0  0  0  0  0  0  0  0  0
   -4.4287   -1.4650   -0.0353 C   0  0  0  0  0  0  0  0  0  0  0  0
    0.6543    1.9517    0.0796 C   0  0  0  0  0  0  0  0  0  0  0  0
   -1.2987    5.9854   -0.0580 C   0  0  0  0  0  0  0  0  0  0  0  0
   -4.7072   -2.0998    1.1750 C   0  0  0  0  0  0  0  0  0  0  0  0
   -4.6227   -2.1424   -1.2392 C   0  0  0  0  0  0  0  0  0  0  0  0
    4.1080   -1.0682    0.2531 C   0  0  0  0  0  0  0  0  0  0  0  0
    2.6215   -0.8721    0.1982 C   0  0  0  0  0  0  0  0  0  0  0  0
   -5.1798   -3.4122    1.1815 C   0  0  0  0  0  0  0  0  0  0  0  0
   -5.0954   -3.4547   -1.2326 C   0  0  0  0  0  0  0  0  0  0  0  0
    4.8320   -1.1800   -0.9286 C   0  0  0  0  0  0  0  0  0  0  0  0
    4.7480   -1.1365    1.4856 C   0  0  0  0  0  0  0  0  0  0  0  0
   -5.3740   -4.0897   -0.0223 C   0  0  0  0  0  0  0  0  0  0  0  0
    6.2140   -1.3622   -0.8772 C   0  0  0  0  0  0  0  0  0  0  0  0
    6.1299   -1.3188    1.5370 C   0  0  0  0  0  0  0  0  0  0  0  0
    6.8629   -1.4316    0.3556 C   0  0  0  0  0  0  0  0  0  0  0  0
    0.6602    5.0547    0.0255 H   0  0  0  0  0  0  0  0  0  0  0  0
   -4.2789    0.4512   -0.9436 H   0  0  0  0  0  0  0  0  0  0  0  0
   -4.3394    0.4822    0.8132 H   0  0  0  0  0  0  0  0  0  0  0  0
    1.4708    2.6961    0.0943 H   0  0  0  0  0  0  0  0  0  0  0  0
   -1.0443    7.0358   -0.0677 H   0  0  0  0  0  0  0  0  0  0  0  0
   -4.5591   -1.5840    2.1201 H   0  0  0  0  0  0  0  0  0  0  0  0
   -4.4082   -1.6598   -2.1891 H   0  0  0  0  0  0  0  0  0  0  0  0
    2.1450   -1.3277    1.0757 H   0  0  0  0  0  0  0  0  0  0  0  0
    2.2056   -1.3599   -0.6926 H   0  0  0  0  0  0  0  0  0  0  0  0
   -5.3920   -3.8947    2.1321 H   0  0  0  0  0  0  0  0  0  0  0  0
   -5.2413   -3.9704   -2.1783 H   0  0  0  0  0  0  0  0  0  0  0  0
    4.3203   -1.1228   -1.8865 H   0  0  0  0  0  0  0  0  0  0  0  0
    4.1870   -1.0478    2.4117 H   0  0  0  0  0  0  0  0  0  0  0  0
    6.6194   -1.3702    2.5064 H   0  0  0  0  0  0  0  0  0  0  0  0
  1 26  1  0  0  0  0
  2 27  1  0  0  0  0
  3 29  1  0  0  0  0
  4 11  1  0  0  0  0
  4 14  1  0  0  0  0
  5 12  1  0  0  0  0
  5 17  1  0  0  0  0
  6  9  1  0  0  0  0
  6 21  1  0  0  0  0
  7 10  1  0  0  0  0
  7 12  1  0  0  0  0
  7 13  1  0  0  0  0
  8 11  1  0  0  0  0
  8 12  2  0  0  0  0
  9 16  2  0  0  0  0
 10 11  2  0  0  0  0
 10 16  1  0  0  0  0
 13 17  2  0  0  0  0
 13 30  1  0  0  0  0
 14 15  1  0  0  0  0
 14 31  1  0  0  0  0
 14 32  1  0  0  0  0
 15 18  2  0  0  0  0
 15 19  1  0  0  0  0
 16 33  1  0  0  0  0
 17 34  1  0  0  0  0
 18 22  1  0  0  0  0
 18 35  1  0  0  0  0
 19 23  2  0  0  0  0
 19 36  1  0  0  0  0
 20 21  1  0  0  0  0
 20 24  2  0  0  0  0
 20 25  1  0  0  0  0
 21 37  1  0  0  0  0
 21 38  1  0  0  0  0
 22 26  2  0  0  0  0
 22 39  1  0  0  0  0
 23 26  1  0  0  0  0
 23 40  1  0  0  0  0
 24 27  1  0  0  0  0
 24 41  1  0  0  0  0
 25 28  2  0  0  0  0
 25 42  1  0  0  0  0
 27 29  2  0  0  0  0
 28 29  1  0  0  0  0
 28 43  1  0  0  0  0
M  END
> <PUBCHEM_COMPOUND_CID>
9637149

> <PUBCHEM_CONFORMER_RMSD>
1

> <PUBCHEM_CONFORMER_DIVERSEORDER>
1
125
175
279
5
221
197
2
299
225
134
244
168
294
237
293
317
206
357
35
149
216
321
344
159
247
108
291
68
41
171
139
329
97
174
365
3
176
29
202
157
358
306
257
100
92
192
88
126
204
269
4
331
210
230
32
308
224
349
89
18
138
296
87
112
364
258
310
161
24
132
106
340
302
128
136
277
143
195
9
191
339
345
287
187
178
229
201
318
272
366
280
209
242
165
265
320
141
99
64
56
227
177
255
156
326
152
248
355
93
170
241
45
199
95
243
183
96
324
332
304
79
61
330
8
328
71
370
17
311
250
336
147
259
185
203
193
14
184
327
38
91
346
182
235
228
13
43
278
341
33
130
10
16
117
155
275
234
273
217
65
335
127
142
104
6
153
50
81
94
319
256
223
194
283
77
116
7
164
44
232
323
350
343
212
288
49
166
20
337
167
105
137
282
226
140
214
314
352
254
300
322
85
181
124
285
367
72
238
342
362
21
60
303
22
290
347
218
73
360
74
15
180
36
305
196
253
30
78
84
207
55
338
356
110
63
298
86
211
37
23
131
123
28
48
295
260
51
52
316
368
34
251
312
359
186
69
76
59
154
135
252
115
363
334
54
46
121
276
361
262
286
11
53
266
369
289
270
114
200
220
268
111
113
90
315
267
25
219
42
47
249
208
236
301
67
102
325
213
348
297
31
12
62
66
284
263
351
169
189
98
80
205
188
40
144
162
75
271
150
19
151
107
198
145
146
133
309
292
245
26
163
179
173
190
240
70
119
281
261
120
274
215
39
264
333
27
82
172
246
101
148
122
109
58
129
231
313
354
233
307
160
158
103
239
353
118
57
83
222

> <PUBCHEM_MMFF94_PARTIAL_CHARGES>
39
1 -0.18
10 -0.24
11 0.28
12 0.24
13 -0.18
14 0.37
15 -0.14
16 0.47
17 -0.05
18 -0.15
19 -0.15
2 -0.18
20 -0.14
21 0.42
22 -0.15
23 -0.15
24 -0.15
25 -0.15
26 0.18
27 0.18
28 -0.15
29 0.18
3 -0.18
30 0.15
33 0.06
34 0.15
35 0.15
36 0.15
39 0.15
4 -0.28
40 0.15
41 0.15
42 0.15
43 0.15
5 -0.16
6 -0.22
7 0.33
8 -0.57
9 -0.51

> <PUBCHEM_EFFECTIVE_ROTOR_COUNT>
7

> <PUBCHEM_PHARMACOPHORE_FEATURES>
6
1 9 acceptor
3 7 8 12 cation
5 5 7 12 13 17 rings
5 7 8 10 11 12 rings
6 15 18 19 22 23 26 rings
6 20 24 25 27 28 29 rings

> <PUBCHEM_HEAVY_ATOM_COUNT>
29

> <PUBCHEM_ATOM_DEF_STEREO_COUNT>
0

> <PUBCHEM_ATOM_UDEF_STEREO_COUNT>
0

> <PUBCHEM_BOND_DEF_STEREO_COUNT>
1

> <PUBCHEM_BOND_UDEF_STEREO_COUNT>
0

> <PUBCHEM_ISOTOPIC_ATOM_COUNT>
0

> <PUBCHEM_COMPONENT_COUNT>
1

> <PUBCHEM_CACTVS_TAUTO_COUNT>
1

> <PUBCHEM_CONFORMER_ID>
00930D1D00000001

> <PUBCHEM_MMFF94_ENERGY>
61.559

> <PUBCHEM_FEATURE_SELFOVERLAP>
30.704

> <PUBCHEM_SHAPE_FINGERPRINT>
10290309 65 17836372545044907921
10319688 140 17761492887105772967
10319688 45 18411138009322034977
10411042 1 18338233877266566331
10940486 97 18189904123546277492
11056379 131 18339083662062760628
11062273 23 18267314131851115201
12106331 60 18411688881880453350
12107183 9 18269291209056401243
12342043 65 18060695113602399034
12758862 56 18335416911855816795
13782708 43 17988640779640515394
13785724 45 18268153226884340785
14068700 675 18333168383867785044
14223995 32 8502379901835509086
14429380 30 18336826493334642835
14844126 61 18263084327793512577
14910700 183 17549816033450125880
15250474 111 18043521708344660122
15400415 2 17617940232145391416
15448158 91 18059568122568452942
15803439 3 17174584210280394133
15876981 60 18261117352592945197
16989713 51 18343582924068665718
16992752 21 18410303523072411076
17686467 74 18341886442494271194
18393751 57 17691133630148110161
19427546 20 18263365802453705212
21716022 299 18117291464993214085
21796203 349 17975166363172979675
22956985 138 18194959866709621329
2303208 19 17703792467059199710
255183 451 18196936789132833711
32027 91 18121775295582393831
3383291 50 18194965132872432337
3504750 166 17826781548492979778
3627633 1 18410289207809828181
4073 2 18195807363374085642
44280117 145 18409732816956575134
49967989 163 18337956683965977702
504843 32 17974284322982806405
5309563 4 18338232777781825499
613672 6 18195499675805753035
6673363 416 18339933697302161780
6697151 62 18051100839990644551
6700243 42 17913524331073483628

> <PUBCHEM_SHAPE_MULTIPOLES>
589.3
20.4
9.07
1.27
37.98
10.8
-0.31
-33.19
-1.02
-21.1
-0.36
1.82
-1.15
0.22

> <PUBCHEM_SHAPE_SELFOVERLAP>
1225.887

> <PUBCHEM_SHAPE_VOLUME>
341.2

> <PUBCHEM_COORDINATE_TYPE>
2
5
10

