9637254
  -OEChem-06302411133D

 39 42  0     0  0  0  0  0  0999 V2000
    3.6135    0.0842    2.7267 Cl  0  0  0  0  0  0  0  0  0  0  0  0
    3.6146    0.0766   -2.7259 Cl  0  0  0  0  0  0  0  0  0  0  0  0
   -5.6511    2.2887    0.0009 S   0  0  0  0  0  0  0  0  0  0  0  0
    1.4092    0.6376   -0.0008 O   0  0  0  0  0  0  0  0  0  0  0  0
   -3.1369    1.7833   -0.0011 N   0  0  0  0  0  0  0  0  0  0  0  0
   -4.2514   -0.1528    0.0010 N   0  0  0  0  0  0  0  0  0  0  0  0
    0.1180    0.0916   -0.0004 N   0  0  0  0  0  0  0  0  0  0  0  0
   -2.1733    0.8218   -0.0015 C   0  0  0  0  0  0  0  0  0  0  0  0
   -2.8868   -0.3635   -0.0002 C   0  0  0  0  0  0  0  0  0  0  0  0
   -4.3412    1.1482    0.0006 C   0  0  0  0  0  0  0  0  0  0  0  0
   -2.3010   -1.6748    0.0005 C   0  0  0  0  0  0  0  0  0  0  0  0
   -3.1892    3.1569   -0.0020 C   0  0  0  0  0  0  0  0  0  0  0  0
   -0.7640    1.0555   -0.0020 C   0  0  0  0  0  0  0  0  0  0  0  0
   -4.4580    3.6000   -0.0012 C   0  0  0  0  0  0  0  0  0  0  0  0
   -2.0158   -2.3107    1.2087 C   0  0  0  0  0  0  0  0  0  0  0  0
   -2.0169   -2.3123   -1.2074 C   0  0  0  0  0  0  0  0  0  0  0  0
    3.7324    0.1279    0.0004 C   0  0  0  0  0  0  0  0  0  0  0  0
   -1.4464   -3.5840    1.2091 C   0  0  0  0  0  0  0  0  0  0  0  0
   -1.4477   -3.5857   -1.2069 C   0  0  0  0  0  0  0  0  0  0  0  0
    2.3410   -0.4335    0.0009 C   0  0  0  0  0  0  0  0  0  0  0  0
   -1.1625   -4.2216    0.0014 C   0  0  0  0  0  0  0  0  0  0  0  0
    4.3769    0.3898    1.2082 C   0  0  0  0  0  0  0  0  0  0  0  0
    4.3774    0.3865   -1.2079 C   0  0  0  0  0  0  0  0  0  0  0  0
    5.6705    0.9115    1.2078 C   0  0  0  0  0  0  0  0  0  0  0  0
    5.6710    0.9081   -1.2083 C   0  0  0  0  0  0  0  0  0  0  0  0
    6.3176    1.1706   -0.0005 C   0  0  0  0  0  0  0  0  0  0  0  0
   -2.2933    3.7587   -0.0033 H   0  0  0  0  0  0  0  0  0  0  0  0
   -0.4198    2.1055   -0.0032 H   0  0  0  0  0  0  0  0  0  0  0  0
   -4.7559    4.6389   -0.0017 H   0  0  0  0  0  0  0  0  0  0  0  0
   -2.2308   -1.8273    2.1589 H   0  0  0  0  0  0  0  0  0  0  0  0
   -2.2328   -1.8300   -2.1578 H   0  0  0  0  0  0  0  0  0  0  0  0
    2.1621   -1.0840   -0.8633 H   0  0  0  0  0  0  0  0  0  0  0  0
    2.1617   -1.0816    0.8667 H   0  0  0  0  0  0  0  0  0  0  0  0
   -1.2237   -4.0791    2.1498 H   0  0  0  0  0  0  0  0  0  0  0  0
   -1.2260   -4.0820   -2.1472 H   0  0  0  0  0  0  0  0  0  0  0  0
   -0.7188   -5.2130    0.0018 H   0  0  0  0  0  0  0  0  0  0  0  0
    6.1885    1.1219    2.1401 H   0  0  0  0  0  0  0  0  0  0  0  0
    6.1895    1.1159   -2.1410 H   0  0  0  0  0  0  0  0  0  0  0  0
    7.3249    1.5768   -0.0008 H   0  0  0  0  0  0  0  0  0  0  0  0
  1 22  1  0  0  0  0
  2 23  1  0  0  0  0
  3 10  1  0  0  0  0
  3 14  1  0  0  0  0
  4  7  1  0  0  0  0
  4 20  1  0  0  0  0
  5  8  1  0  0  0  0
  5 10  1  0  0  0  0
  5 12  1  0  0  0  0
  6  9  1  0  0  0  0
  6 10  2  0  0  0  0
  7 13  2  0  0  0  0
  8  9  2  0  0  0  0
  8 13  1  0  0  0  0
  9 11  1  0  0  0  0
 11 15  2  0  0  0  0
 11 16  1  0  0  0  0
 12 14  2  0  0  0  0
 12 27  1  0  0  0  0
 13 28  1  0  0  0  0
 14 29  1  0  0  0  0
 15 18  1  0  0  0  0
 15 30  1  0  0  0  0
 16 19  2  0  0  0  0
 16 31  1  0  0  0  0
 17 20  1  0  0  0  0
 17 22  2  0  0  0  0
 17 23  1  0  0  0  0
 18 21  2  0  0  0  0
 18 34  1  0  0  0  0
 19 21  1  0  0  0  0
 19 35  1  0  0  0  0
 20 32  1  0  0  0  0
 20 33  1  0  0  0  0
 21 36  1  0  0  0  0
 22 24  1  0  0  0  0
 23 25  2  0  0  0  0
 24 26  2  0  0  0  0
 24 37  1  0  0  0  0
 25 26  1  0  0  0  0
 25 38  1  0  0  0  0
 26 39  1  0  0  0  0
M  END
> <PUBCHEM_COMPOUND_CID>
9637254

> <PUBCHEM_CONFORMER_RMSD>
0.8

> <PUBCHEM_CONFORMER_DIVERSEORDER>
1
37
10
30
11
6
15
7
27
31
33
20
29
38
8
9
12
39
16
18
2
23
19
32
36
26
17
4
14
24
34
13
21
35
22
28
3
5
25

> <PUBCHEM_MMFF94_PARTIAL_CHARGES>
37
1 -0.18
10 0.24
11 0.05
12 -0.18
13 0.47
14 -0.05
15 -0.15
16 -0.15
17 -0.14
18 -0.15
19 -0.15
2 -0.18
20 0.42
21 -0.15
22 0.18
23 0.18
24 -0.15
25 -0.15
26 -0.15
27 0.15
28 0.06
29 0.15
3 -0.16
30 0.15
31 0.15
34 0.15
35 0.15
36 0.15
37 0.15
38 0.15
39 0.15
4 -0.22
5 0.33
6 -0.57
7 -0.51
8 -0.24
9 0.17

> <PUBCHEM_EFFECTIVE_ROTOR_COUNT>
5

> <PUBCHEM_PHARMACOPHORE_FEATURES>
6
1 7 acceptor
3 5 6 10 cation
5 3 5 10 12 14 rings
5 5 6 8 9 10 rings
6 11 15 16 18 19 21 rings
6 17 22 23 24 25 26 rings

> <PUBCHEM_HEAVY_ATOM_COUNT>
26

> <PUBCHEM_ATOM_DEF_STEREO_COUNT>
0

> <PUBCHEM_ATOM_UDEF_STEREO_COUNT>
0

> <PUBCHEM_BOND_DEF_STEREO_COUNT>
1

> <PUBCHEM_BOND_UDEF_STEREO_COUNT>
0

> <PUBCHEM_ISOTOPIC_ATOM_COUNT>
0

> <PUBCHEM_COMPONENT_COUNT>
1

> <PUBCHEM_CACTVS_TAUTO_COUNT>
1

> <PUBCHEM_CONFORMER_ID>
00930D8600000001

> <PUBCHEM_MMFF94_ENERGY>
66.9039

> <PUBCHEM_FEATURE_SELFOVERLAP>
30.701

> <PUBCHEM_SHAPE_FINGERPRINT>
10366900 7 17203613675010883256
10411042 1 17906453586760475631
10675989 125 17910399381335409384
107951 10 18412833460399307759
11796584 16 18342181047387024022
12107183 9 18189885423727584626
12236239 1 17749389269601766320
12616971 3 17095516319224283176
12788726 201 18115591607237284627
13617811 41 18336260232599161885
13726171 33 17977418180066527780
14251757 5 18412269462294342424
14790565 3 18265897960521026905
15131766 46 15721103788663877790
15463212 79 18333723615738660123
19315092 285 13324876251092317694
19319366 153 17531243924746291672
20511986 3 17749379391224737732
20554085 129 18198327486695378025
21033648 29 17917137347493609680
23366157 5 17612318446709402499
23557571 272 18272658973784791644
23559900 14 18272941484090843732
23598288 3 17898027934350334995
23728640 28 18337106869205829883
3298306 158 18270402668281277215
3383291 50 18339080514242616611
3411729 13 18047191852694009049
4015057 19 16774077379887322632
4073 2 18409169948560066098
497634 4 16081656715112024978
50150288 127 16740077267657601814
508706 21 18130219484152538086
5219985 13 18265049146260776293
5364581 5 17982999348618674112
5385378 56 18124321493802633817
7288768 16 17967534558190611987
9849439 229 18265332815981547253
9981440 41 18335708187599490171

> <PUBCHEM_SHAPE_MULTIPOLES>
521.84
13.72
4.38
1.71
13.5
3.77
0
-12.06
0
-8.1
0
3.04
0.45
0.01

> <PUBCHEM_SHAPE_SELFOVERLAP>
1119.508

> <PUBCHEM_SHAPE_VOLUME>
292.7

> <PUBCHEM_COORDINATE_TYPE>
2
5
10

